36

Mo            6.5535404816        1.7356141328        2.7545414580
S             8.1293987891        0.8482249704        4.3749962535
S             8.1415646608        0.8315936349        1.1708107183
Mo            8.1228587051        4.4619349185        2.7153085582
S             6.5008953690        3.6438323586        4.2984669213
S             6.5533553865        3.5446552664        1.1143954068
Mo            6.5230894068        7.1887203102        2.6510912911
S             8.0897972365        6.2824912576        4.2864049800
S             8.1430463506        6.2936049659        1.1045533337
Mo            8.1537644592        9.9410076304        2.7743116806
S             6.5251194076        8.9569948988        4.2665844186
S             6.5898162050        9.0435551135        1.1298897608
Mo            3.4142867297        1.7415608190        2.7622314520
S             4.9805327418        0.8179952227        4.3502404063
S             4.9806305072        0.8307870837        1.1595739362
Mo            4.9491392883        4.4945161222        2.6511759181
S             3.4372262085        3.6406853954        4.3243318347
S             3.4124708955        3.5308021079        1.1007217005
Mo            3.4803132811        7.1233497196        2.6832620340
S             5.0086703623        6.2820030758        1.0515514480
Mo            4.9819756909        9.9180419427        2.7329187793
S             3.4608887386        8.9147051471        4.3314058489
S             3.4002440930        9.0003642590        1.1424469290
Mo            0.2627501914        1.7276475123        2.7716790127
S             1.8482182431        0.8301750087        4.3770447778
S             1.8410602653        0.8165520919        1.1812925488
Mo            1.8503101091        4.4656552668        2.7114650140
S             0.2603620830        3.5853010183        4.3227250335
S             0.2566785060        3.5366002697        1.1425524440
Mo            0.2663455304        7.1985640402        2.7315383144
S             1.8985505868        6.2712578594        4.3084606462
S             1.8546010967        6.2988394678        1.1127313565
Mo            1.8497102332        9.9115334404        2.7802485946
S             0.2730956884        9.0026155059        4.3655147727
S             0.2726803901        9.0332441413        1.1737987952
H             6.5098657605        9.2361759901        5.6160564416
