36

Mo            6.5617955357        1.7658433709        2.7455375020
S             8.1208617106        0.8630256218        4.3672470560
S             8.1407939686        0.8442379798        1.1683911042
Mo            8.1222411823        4.4975816006        2.7118193753
S             6.5348451280        3.6601792948        4.3140426127
S             6.5641191038        3.5662526361        1.0930212599
Mo            6.4853113074        7.1622234639        2.6867447427
S             8.0617791838        6.3033661236        4.3125697191
S             8.1207537727        6.3375600619        1.1237402986
Mo            8.1269185800        9.9445303559        2.7743053601
S             6.5120365272        8.9603826376        4.3294865674
S             6.5743929449        9.0326042063        1.1373343480
Mo            3.4219858562        1.7639586378        2.7511501081
S             4.9987170388        0.8499183519        4.3398912574
S             4.9879455698        0.8564012167        1.1458270820
Mo            5.0201217552        4.5154444973        2.6463366188
S             3.4743198660        3.6659242172        4.3003530767
S             3.4125422151        3.5710781636        1.1140248416
Mo            3.4687822386        7.2186397071        2.6823082419
S             4.9590780902        6.3123490699        1.0611694671
Mo            4.9879774110        9.9510774854        2.7288915756
S             3.4610123994        9.0112133299        4.2993160052
S             3.3765351425        9.0592694292        1.1480019978
Mo            0.2521366379        1.7582990690        2.7676885176
S             1.8428023808        0.8829424448        4.3770682149
S             1.8344388571        0.8510782228        1.1763227198
Mo            1.8490230546        4.4845792021        2.7247812644
S             0.2496705400        3.6136978493        4.3249516076
S             0.2599536117        3.5715686207        1.1421529742
Mo            0.2500008420        7.2287129319        2.7491642568
S             1.8860307787        6.3046521931        4.3026330621
S             1.8415600518        6.3271565238        1.1348220913
Mo            1.8242575270        9.9667649193        2.7912479562
S             0.2362066612        9.0348603908        4.3746262659
S             0.2555949185        9.0550294334        1.1850013907
H             3.5480579560        9.4031209280        5.6227909972
