36

Mo            6.5898807061        1.7614279775        2.7585138160
S             8.1674579773        0.8515227934        4.3708149570
S             8.1729287930        0.8463416422        1.1784926534
Mo            8.1620461897        4.4556763246        2.6999589137
S             6.5295070115        3.6640804371        4.2938605315
S             6.5872435405        3.5580993628        1.1043594087
Mo            6.5554652277        7.2364036613        2.6375694889
S             8.1090605954        6.2970857150        4.2175427468
S             8.2003121332        6.3268819535        1.1288946970
Mo            8.1796527037        9.9420722659        2.7717715971
S             6.5634859968        8.9738533932        4.3261050109
S             6.6251734709        9.0718713673        1.1115935394
Mo            3.4625512169        1.7606200924        2.7657661619
S             5.0285973655        0.8256391722        4.3532328944
S             5.0247265629        0.8427557184        1.1728949968
Mo            4.9889772657        4.5422478438        2.6405496933
S             3.4810698747        3.6727800243        4.3124246817
S             3.4517104702        3.5532122419        1.1006288448
Mo            3.5081947527        7.1348842634        2.6950168638
S             5.0369760897        6.3306739856        1.0356457492
Mo            5.0364354348        9.9187512986        2.7397000160
S             3.5154533961        8.9351411312        4.3377185466
S             3.4424019352        9.0214948768        1.1529031770
Mo            0.3104888546        1.7353944688        2.7696205723
S             1.9021578860        0.8511315558        4.3810982296
S             1.8955339087        0.8289337104        1.1841061040
Mo            1.8835215538        4.4870122922        2.7051115746
S             0.2983005118        3.5905403135        4.3138392255
S             0.2957622254        3.5360650218        1.1307099097
Mo            0.3297350315        7.2243727255        2.7613146827
S             1.9546643495        6.2825856222        4.3233533957
S             1.8827080280        6.3288693242        1.1222526923
Mo            1.8981841205        9.9363916241        2.7883209399
S             0.3107646281        9.0426618454        4.3774647971
S             0.3189612937        9.0582110577        1.1888221739
H             8.2290159103        6.1268704175        5.5743495365
