36

Mo            6.5980779148        1.7449764822        2.7429995702
S             8.1785964282        0.8558626093        4.3516614207
S             8.1800421303        0.8301618686        1.1557281150
Mo            8.1394113630        4.4639312176        2.6650918899
S             6.5617693905        3.6509955939        4.2956048926
S             6.5903405336        3.5392190632        1.0878199072
Mo            6.5584130515        7.2116103558        2.7215318205
S             8.1103390482        6.4180316567        4.4552841643
S             8.1665716191        6.3294931337        1.1543949290
Mo            8.1818627626        9.9400755461        2.7668193783
S             6.5607966087        8.9936733077        4.3434158258
S             6.6251159239        9.0236663395        1.1426111238
Mo            3.4601220318        1.7546224608        2.7457103240
S             5.0244482703        0.8302722873        4.3381487797
S             5.0266633634        0.8293515366        1.1609539737
Mo            5.0337819037        4.5140942343        2.6507906828
S             3.4949061858        3.6560761570        4.3030002735
S             3.4585714475        3.5646103512        1.1068543484
Mo            3.5175706596        7.1659654173        2.7111376508
S             5.0502587893        6.3232542054        1.0840726745
Mo            5.0282153581        9.9119458454        2.7388256261
S             3.5065270388        8.9553189329        4.3442024560
S             3.4440024614        9.0061281549        1.1469204438
Mo            0.3082039834        1.7363687764        2.7413999056
S             1.8934614883        0.8556943015        4.3534187954
S             1.8914256245        0.8230860104        1.1574047017
Mo            1.8857750673        4.4931771906        2.7181363860
S             0.2770345229        3.5988236206        4.2906998890
S             0.2985259740        3.5544803628        1.1186345440
Mo            0.2985896318        7.2163067939        2.7761096732
S             1.9442009597        6.2909318657        4.3313285410
S             1.8865361870        6.3307985892        1.1474383638
Mo            1.8934840502        9.9305463366        2.7691929438
S             0.3123420840        9.0486402264        4.3683884617
S             0.3050690141        9.0247871522        1.1805175283
H            -1.2187058591        7.3499017600        5.4885115329
