36

Mo            6.5689284559        1.7487248098        2.7580010368
S             8.1228278030        0.8333711508        4.3735443089
S             8.1551378058        0.8309593407        1.1729287285
Mo            8.0891575350        4.4992075148        2.7460129414
S             6.4977807906        3.6585500181        4.3155664227
S             6.5782873766        3.5419995749        1.1062987878
Mo            6.5105037973        7.1966543049        2.6710240617
S             8.0626619389        6.3322592519        4.3169101051
S             8.1386329137        6.3050003095        1.1229847560
Mo            8.1431238272        9.9266723885        2.7703620299
S             6.5197983197        8.9513164564        4.3296611279
S             6.5947092662        9.0324755179        1.1259624624
Mo            3.4191110486        1.7496626268        2.7500585030
S             4.9897524836        0.8194756365        4.3390806769
S             4.9957075593        0.8323415125        1.1691921568
Mo            5.0013969951        4.5141722535        2.6452095128
S             3.4966923940        3.6631203642        4.3007313004
S             3.4280822121        3.5376540302        1.0955954931
Mo            3.4852753331        7.1979782999        2.6639582418
S             5.0016258638        6.3098358004        1.0427123320
Mo            4.9968065054        9.9061340777        2.7309787505
S             3.4750134037        8.9466738540        4.3273679608
S             3.3995371973        9.0364422624        1.1228838074
Mo            0.2708948123        1.7234958182        2.7569366722
S             1.8588995763        0.8426135089        4.3694414610
S             1.8330812629        0.8323559079        1.1689601887
Mo            1.9075029663        4.4856310057        2.7191491944
S             0.2393073096        3.7649817647        4.4879058976
S             0.2623984390        3.5653986231        1.1944504508
Mo            0.2727089467        7.1873099248        2.7444464898
S             1.9369226543        6.3119765387        4.3060201283
S             1.8633946768        6.2967027931        1.1124930462
Mo            1.8527308117        9.9294086148        2.7710908884
S             0.2704972655        9.0026654298        4.3609570559
S             0.2707147010        9.0257560643        1.1799929981
H             9.4195027637        2.5706135044        5.1218776007
