36

Mo            6.6054125080        1.7798946037        2.8045023246
S             8.1739494636        0.8773638075        4.4185927664
S             8.1874649552        0.8575527924        1.2259662348
Mo            8.1663450601        4.5124203173        2.7709575759
S             6.5748994558        3.6614161927        4.3649571137
S             6.6139185913        3.5792773052        1.1571447865
Mo            6.5565954697        7.2270987160        2.7445051756
S             8.1160779659        6.3268127054        4.3672549011
S             8.1720569331        6.3488825001        1.1828634583
Mo            8.1724978524        9.9594456826        2.8303021070
S             6.5624907627        9.0026381133        4.3964735223
S             6.6238395170        9.0616133193        1.1874299919
Mo            3.4661394957        1.7874561389        2.8007578719
S             5.0314484141        0.8553034257        4.3923212687
S             5.0362622531        0.8708066146        1.2090264611
Mo            5.0504814720        4.5326592185        2.7018097179
S             3.5105016444        3.6757498690        4.3557068598
S             3.4644819771        3.5934941913        1.1586794228
Mo            3.4913858409        7.2487033169        2.7198441222
S             5.0296703091        6.3448025037        1.0891172200
Mo            5.0290094150        9.9426919348        2.7865658581
S             3.4929938043        9.0052591503        4.3905918637
S             3.4338471105        9.0801548328        1.1750656313
Mo            0.3054486343        1.7722455119        2.8171152043
S             1.8965750195        0.8814899081        4.4120466198
S             1.8818393682        0.8679432985        1.2233495831
Mo            1.9043242216        4.5202777620        2.7690286869
S             0.3109567330        3.6340949836        4.3726351416
S             0.3080601856        3.5896697884        1.1973282683
Mo            0.2976280535        7.2335674666        2.8042499639
S             1.9431028034        6.3410029013        4.3565421043
S             1.8713935436        6.3526534787        1.1724586303
Mo            1.8870858425        9.9636010748        2.8234812526
S             0.3019946394        9.0482194230        4.4204423001
S             0.2981204834        9.0680967834        1.2321817163
H             5.0085538797        6.3625201116        3.6950270925
