36

Mo            6.6068874858        1.7751883119        2.7523484368
S             8.1413511096        0.8288318344        4.3697333168
S             8.1510538489        0.8231743336        1.1656258442
Mo            8.1376703418        4.4747591663        2.7020808106
S             6.5395070394        3.6683665460        4.3063588471
S             6.5807150781        3.5492304486        1.0873409833
Mo            6.5588674118        7.1626941024        2.6445043972
S             8.1002297644        6.2807045214        4.2929310698
S             8.1669303727        6.2949873347        1.0891739621
Mo            8.1359746650        9.9201041810        2.7613310039
S             6.5508796215        8.8936313308        4.3321896896
S             6.5995425757        9.0164516694        1.1086313787
Mo            3.3948920183        1.7769266620        2.7623296866
S             5.0038464195        0.7971259674        4.2272231256
S             4.9974701368        0.8159046009        1.2136243055
Mo            4.9977544514        4.5002359705        2.6413817333
S             3.4661926323        3.6739055810        4.3175591759
S             3.4212077002        3.5481654625        1.0922661606
Mo            3.4476198873        7.1512092078        2.6593931393
S             4.9998040123        6.2968131067        1.0466532322
Mo            5.0051933316        9.8214211133        2.7409045222
S             3.4615311948        8.8923346874        4.3397662354
S             3.4059176038        9.0080278849        1.1205985382
Mo            0.2726214268        1.7139655940        2.7717616935
S             1.8567712649        0.8329687629        4.3761327534
S             1.8551492793        0.8222950169        1.1755844374
Mo            1.8670649435        4.4754787615        2.7094581375
S             0.2707483634        3.5881292686        4.3108687938
S             0.2765324014        3.5292168754        1.1433103482
Mo            0.2729720198        7.1915346966        2.7269786845
S             1.8959937143        6.2809306363        4.3031711115
S             1.8407020925        6.2952607025        1.0985457968
Mo            1.8716003806        9.9205685282        2.7707693697
S             0.2725550025        9.0038652390        4.3480192146
S             0.2803324654        9.0365191892        1.1762013596
H             5.0220205103       11.7489191147        5.5903362541
