36

Mo            6.5459348629        1.7652182803        2.7513034782
S             8.1064030815        0.8681431537        4.3711921974
S             8.1278987101        0.8516990239        1.1686599574
Mo            8.1046457996        4.4979910548        2.7177235524
S             6.4856536706        3.6807936728        4.2927896113
S             6.5543784333        3.5700209580        1.1039430799
Mo            6.4832241385        7.2418555085        2.6578555158
S             8.0347893394        6.3223125464        4.2954859508
S             8.1185081421        6.3287892505        1.1209890097
Mo            8.1241871604        9.9525326424        2.7711608925
S             6.4948886856        8.9824679639        4.3342126057
S             6.5760010126        9.0681831053        1.1187928905
Mo            3.4425978447        1.7917607036        2.7624620945
S             4.9938026620        0.8391606763        4.3439653251
S             4.9803803351        0.8567909488        1.1523749314
Mo            4.9583756010        4.5275853923        2.6250951109
S             3.4590513562        3.7008688668        4.3165532690
S             3.3970989914        3.5665670009        1.0955611668
Mo            3.4858039038        7.1969378654        2.6841837910
S             4.9823159274        6.3255905630        1.0344666250
Mo            4.9758274121        9.9347352858        2.7275424277
S             3.4795282097        8.9412628602        4.3508421640
S             3.3828169994        9.0287338762        1.1309318975
Mo            0.2157722743        1.7786559885        2.7701241430
S             1.8347503663        0.8540234187        4.2721893179
S             1.8313195255        0.8394288280        1.2141839298
Mo            1.8378525651        4.4829375828        2.7183080729
S             0.2325304601        3.6338833326        4.3300741809
S             0.2375961112        3.5738414514        1.1376913183
Mo            0.2378483017        7.2180448970        2.7438536217
S             1.8931764003        6.3077196478        4.2996341788
S             1.8321631266        6.3237056732        1.1346285234
Mo            1.8363081542        9.8942959294        2.7852215184
S             0.2348327071        9.0091788790        4.3724614518
S             0.2501280531        9.0434477756        1.1769456073
H             1.7547077981        0.8961040290        5.6369364631
