36

Mo            6.5941200736        1.7839811994        2.6957238179
S             8.1213986401        0.8591248872        4.3403081765
S             8.1588712480        0.8374299077        1.1385845512
Mo            8.1313531155        4.5023572266        2.6980331780
S             6.5432538581        3.6514243810        4.2956508139
S             6.5803404821        3.5771366458        1.0703360184
Mo            6.5297619579        7.1799294699        2.6696887645
S             8.0935117709        6.3010262692        4.2989886316
S             8.1473827938        6.3348838105        1.1012825846
Mo            8.1319955375        9.9442577611        2.7553119775
S             6.5431993232        8.9378464088        4.3344538465
S             6.5795291215        9.0336592347        1.1284361128
Mo            3.4310408422        1.7447328898        2.8020882919
S             4.9294900812        0.7481707181        4.4751784588
S             4.9893839614        0.8249361312        1.2009471325
Mo            5.0125745744        4.5115425815        2.6495976691
S             3.4780546395        3.6818091205        4.3227131004
S             3.4366898681        3.5388898617        1.1273072722
Mo            3.4744730678        7.1825097056        2.6780676268
S             4.9950570784        6.3069449301        1.0558382845
Mo            4.9882419893        9.8867439902        2.7651636680
S             3.4548791507        8.9357510277        4.3475070145
S             3.4063591154        9.0282241773        1.1383772916
Mo            0.2658521329        1.7422845914        2.7594708468
S             1.8316638932        0.8462067068        4.3738950517
S             1.8729154340        0.8410214206        1.1869145125
Mo            1.8736272597        4.4892264711        2.7191669226
S             0.2629512208        3.6073484817        4.3115072374
S             0.2812409824        3.5594372663        1.1422306064
Mo            0.2708318465        7.2165704698        2.7312055027
S             1.9008042063        6.3000784289        4.3048334970
S             1.8613066527        6.3190592178        1.1174995612
Mo            1.8532617779        9.9351890535        2.7740820460
S             0.2555854953        9.0291868699        4.3512576103
S             0.2719718149        9.0550469500        1.1666851475
H             4.1223764494        0.2069781472        5.4920070461
