36

Mo            6.5435224651        1.7620315096        2.7597468181
S             8.1033016901        0.8505443898        4.3771648378
S             8.1213607348        0.8301311857        1.1817023108
Mo            8.1145665485        4.4857783504        2.7241582953
S             6.5158211445        3.6650607973        4.3260392346
S             6.5487207933        3.5592448621        1.1075107990
Mo            6.4971781313        7.1387036634        2.7003293080
S             8.0430670181        6.2845874435        4.3398760800
S             8.1245902973        6.3194990563        1.1356430462
Mo            8.1126294263        9.9339116844        2.7836031954
S             6.4957247476        8.9409853968        4.3347933546
S             6.5688938850        9.0156777286        1.1486319409
Mo            3.4116923143        1.7569741281        2.7495075721
S             4.9772797996        0.8243950465        4.3412375463
S             4.9824220429        0.8406852380        1.1637208153
Mo            5.0102051060        4.5371885306        2.6526629058
S             3.4723321958        3.6512504986        4.3054822534
S             3.4125783805        3.5646285079        1.1090374276
Mo            3.4511132472        7.2390231391        2.6413122079
S             4.9679011014        6.3247552466        1.0476127941
Mo            4.9747362640        9.9181356642        2.7323147608
S             3.4443972639        8.9797330554        4.3204661163
S             3.3844657665        9.0672837559        1.1060099816
Mo            0.2390313646        1.7400271136        2.7732475297
S             1.8422011537        0.8519274132        4.3634056939
S             1.8194580992        0.8450192397        1.1714734196
Mo            1.8416847036        4.4538301381        2.7169978214
S             0.2458269686        3.5900213900        4.3319001184
S             0.2481171757        3.5459713221        1.1446789627
Mo            0.2195852172        7.2212833494        2.7717771755
S             1.9022805370        6.3012255763        4.2322233868
S             1.8020549617        6.3170189457        1.1412328758
Mo            1.8265583542        9.9423828211        2.7628753604
S             0.2447185278        9.0481138233        4.3765405948
S             0.2331110464        9.0450874079        1.1853203473
H             1.7799696492        6.1604401023        5.5945246488
