36

Mo            6.5880710591        1.7690560897        2.7511602595
S             8.1675721051        0.8878705447        4.3738346245
S             8.1782515621        0.8594625624        1.1710515844
Mo            8.1481935007        4.4917039588        2.7185629130
S             6.5274571079        3.6722779167        4.3000128624
S             6.5834509734        3.5743006921        1.1126984174
Mo            6.5408177033        7.2205055140        2.6629582648
S             8.1125509521        6.3106697677        4.2937707170
S             8.1668628185        6.3262657483        1.1177402562
Mo            8.1850158626        9.9723622981        2.7837765518
S             6.5486711758        8.9969106138        4.2756277862
S             6.6225783529        9.0704116086        1.1398795338
Mo            3.4485374904        1.7726857814        2.7459241620
S             5.0111073627        0.8568056696        4.3430431038
S             5.0230363855        0.8633791089        1.1503896779
Mo            4.9794612066        4.5225811728        2.6484546218
S             3.4670387264        3.6633485400        4.3177043606
S             3.4390385448        3.5700814129        1.0941192911
Mo            3.5146731545        7.1597780614        2.6862669822
S             5.0382057530        6.3110890287        1.0517509967
Mo            5.0151050265        9.9549545164        2.7307544049
S             3.4934224164        8.9549611899        4.3285508601
S             3.4363906760        9.0314835812        1.1402335338
Mo            0.2982330051        1.7641046165        2.7649410216
S             1.8883835789        0.8659581396        4.3621640016
S             1.8715447891        0.8473350066        1.1676912681
Mo            1.8782253439        4.4986930791        2.7135890815
S             0.2876038025        3.6181334578        4.3226334541
S             0.2826507494        3.5772342178        1.1397122120
Mo            0.2935499211        7.2294256298        2.7415324676
S             1.9310971545        6.3051379579        4.3131559245
S             1.8798471338        6.3353415576        1.1235360747
Mo            1.8809775268        9.9447665497        2.7724798800
S             0.3116414262        9.0376052317        4.3693249202
S             0.2968794925        9.0593434999        1.1776956005
H             6.4914609497        9.2994998660        5.6196011474
