36

Mo            6.5768800292        1.7127510872        2.7356276463
S             8.1327618772        0.8131619096        4.3656259691
S             8.1588038573        0.7840957793        1.1691445371
Mo            8.1406156745        4.4536358401        2.7187669663
S             6.5229765966        3.6211883916        4.2834611878
S             6.5928439664        3.5202933556        1.0916200796
Mo            6.4822881075        7.1531136623        2.7055714220
S             8.0481982125        6.2649307726        4.3233754968
S             8.1361921799        6.2983356577        1.1451444057
Mo            8.1430888030        9.8953178605        2.7823907329
S             6.5112960142        8.9357615108        4.3513382104
S             6.5978386621        8.9868622350        1.1405572912
Mo            3.4411390009        1.7107136653        2.7372012563
S             5.0137235416        0.8014908640        4.3291886031
S             5.0093969443        0.8023092012        1.1382400414
Mo            5.0043585379        4.4679068264        2.6091193830
S             3.5020613026        3.6003928214        4.2983494508
S             3.4143712997        3.5072118851        1.0914839073
Mo            3.5591740962        7.2396887673        2.6776739015
S             4.9989228864        6.2826724659        1.0380831272
Mo            5.0020404542        9.8977259624        2.7286168826
S             3.4926541160        8.9700639303        4.3547603328
S             3.4106727313        9.0230270703        1.1157799094
Mo            0.2652371461        1.7038119855        2.7663640710
S             1.8668850727        0.8175724644        4.3601250924
S             1.8453520406        0.7954966864        1.1702040010
Mo            1.8652904447        4.3872901859        2.7256130924
S             0.2580137152        3.5507791495        4.3349467159
S             0.2738079414        3.5163033669        1.1410367116
Mo            0.2369625361        7.1928349412        2.7718482222
S             1.9404435912        6.2721542689        4.2110790076
S             1.8645280767        6.2896557336        1.1891891664
Mo            1.8569049659        9.8975032935        2.7742678059
S             0.2689235354        9.0087665741        4.3834689284
S             0.2650808607        9.0003003615        1.1897716278
H             1.8741204160        6.1631147659        5.5713046885
