36

Mo            6.5686257213        1.7574204645        2.8165998271
S             8.1381628614        0.8450002002        4.4211428814
S             8.1462507419        0.8412855389        1.2340163251
Mo            8.1355553689        4.4886524698        2.7649973473
S             6.5380452632        3.6488226042        4.3687996564
S             6.5697374566        3.5584415595        1.1661330219
Mo            6.5609876188        7.1950272094        2.7087646191
S             8.1016118828        6.3043225922        4.3558782404
S             8.1720720738        6.3130932924        1.1551463408
Mo            8.1411259188        9.9336761957        2.8205496955
S             6.5420272698        8.9579547416        4.3799032198
S             6.5965710465        9.0467572775        1.1710715845
Mo            3.4297557578        1.7539208897        2.8225014754
S             5.0019239865        0.8105011416        4.4001517474
S             4.9963391129        0.8395907196        1.2273533286
Mo            4.9947506408        4.5123948972        2.7212807684
S             3.4599895056        3.6461259648        4.3753928827
S             3.4335684642        3.5489850347        1.1693974519
Mo            3.4532193554        7.1760240781        2.7209108181
S             5.0048257919        6.3035000713        1.0883363322
Mo            5.0023586741        9.9006838690        2.7854547670
S             3.4630437944        8.9518070362        4.3811172354
S             3.4051782385        9.0344489824        1.1814383504
Mo            0.2731188574        1.7372179016        2.8252848422
S             1.8593004805        0.8409599366        4.4300676996
S             1.8541157410        0.8339615545        1.2363316846
Mo            1.8698623359        4.4865803200        2.7663713130
S             0.2722844951        3.6050998762        4.3712114000
S             0.2745212973        3.5459897768        1.1990890378
Mo            0.2781556691        7.2055245210        2.7913853635
S             1.9063620890        6.2976064751        4.3623975875
S             1.8462453210        6.3118363764        1.1569871044
Mo            1.8616008380        9.9310600219        2.8272144031
S             0.2719635238        9.0213965082        4.4113504554
S             0.2767995642        9.0535362463        1.2274679967
H             5.0260458094        6.3133511765        3.6848260154
