36

Mo            6.5659489737        1.7570606136        2.7413504579
S             8.1064462088        0.8299735326        4.3756875437
S             8.1470431055        0.8206525156        1.1679602012
Mo            8.0835377658        4.5112896811        2.7077642412
S             6.5075690723        3.6660833737        4.2931424491
S             6.5725770394        3.5509184470        1.0831669172
Mo            6.4926069631        7.2200250086        2.6718890007
S             8.0576727652        6.3244380533        4.3050806095
S             8.1344621451        6.3295843181        1.1149223628
Mo            8.1277858856        9.9286811147        2.7735595194
S             6.5027486776        8.9612534942        4.3400421400
S             6.5819036948        9.0430599727        1.1206990468
Mo            3.4094509072        1.7593061357        2.7599502174
S             4.9934848958        0.8359949198        4.3352707519
S             4.9793748774        0.8487365211        1.1629105209
Mo            4.9945361514        4.4937593582        2.6202782371
S             3.4928135625        3.6696656557        4.3094841091
S             3.4016597839        3.5506947624        1.1019320424
Mo            3.4950334468        7.2253349114        2.6804996115
S             4.9901765511        6.3165922525        1.0470256720
Mo            4.9906244204        9.9233552899        2.7302241230
S             3.4849696210        8.9685328179        4.3484291108
S             3.3972163326        9.0430156358        1.1274028683
Mo            0.2574119015        1.6900340302        2.7831029171
S             1.8572712330        0.8307260062        4.3903787341
S             1.8376882304        0.8260738663        1.1800595279
Mo            1.8997144563        4.5130730336        2.7370800368
S             0.2426801620        3.6140228758        4.2133476809
S             0.2722373208        3.5560248017        1.1891368322
Mo            0.2663450725        7.2065753099        2.7479533140
S             1.9288732242        6.3379688381        4.3205364553
S             1.8586442467        6.3230188319        1.1289822453
Mo            1.8556589590        9.9319846946        2.7834025366
S             0.2595245935        9.0190813482        4.3679649830
S             0.2705100730        9.0362870054        1.1859330788
H             0.1561446921        3.6610340500        5.5737897755
