36

Mo            6.5639380167        1.7226366712        2.7460872243
S             8.1121046161        0.8008566568        4.3791702167
S             8.1440525264        0.7909098138        1.1726130865
Mo            8.0847676063        4.4765958060        2.7110313524
S             6.5015406044        3.6361109742        4.2937682523
S             6.5757471281        3.5149862725        1.0894631093
Mo            6.4872959567        7.1927103711        2.6691731682
S             8.0534776791        6.2918945345        4.3028029380
S             8.1289707780        6.2943722321        1.1118099673
Mo            8.1232951914        9.8987257651        2.7800591451
S             6.4975193126        8.9302395165        4.3460758179
S             6.5803148630        9.0164350697        1.1228822935
Mo            3.4111197690        1.7231098621        2.7558047343
S             4.9909035099        0.8054018837        4.3398763034
S             4.9824038670        0.8076779395        1.1599973850
Mo            4.9878829614        4.4592893612        2.6174975827
S             3.4814654405        3.6387807033        4.3040927757
S             3.4002791870        3.5118145596        1.0962566109
Mo            3.4979013049        7.1887978521        2.6855025733
S             4.9863358109        6.2812166116        1.0435212312
Mo            4.9888151448        9.8915646827        2.7362535477
S             3.4849593199        8.9328159701        4.3578481242
S             3.3943617998        9.0102782448        1.1375575757
Mo            0.2593464833        1.6574088729        2.7807797824
S             1.8602838113        0.8035436537        4.3887755977
S             1.8340178171        0.7861087769        1.1818202836
Mo            1.8951220807        4.4749299496        2.7215962047
S             0.2541080029        3.5770112445        4.2081201789
S             0.2658798983        3.5194160939        1.1787212133
Mo            0.2600953376        7.1720703242        2.7413463764
S             1.9200398545        6.2931754655        4.3102650900
S             1.8597187647        6.2940728991        1.1246731513
Mo            1.8527815645        9.8971252416        2.7919354534
S             0.2541336150        8.9772449918        4.3685394529
S             0.2640302179        9.0137011088        1.1912296406
H             0.2333371705        3.6265608785        5.5733924310
