36

Mo            6.5560331302        1.8004277187        2.7412532186
S             8.2202920185        0.8277467849        4.3913665927
S             8.1626414702        0.8515479786        1.2027101465
Mo            8.1247797731        4.4942140637        2.7067120290
S             6.5014179495        3.7124594306        4.2967738247
S             6.5600342431        3.5756339106        1.0929863530
Mo            6.5119858536        7.2350662702        2.6668993004
S             8.0834421888        6.3206624926        4.2912367715
S             8.1531646811        6.3435216945        1.1263375845
Mo            8.1663134714        9.9307515149        2.7893816604
S             6.5204465783        8.9734496659        4.3450434047
S             6.6211020468        9.0592088190        1.1253162451
Mo            3.4472226280        1.7695043323        2.7363332554
S             5.0068327070        0.8521408416        4.3259182680
S             5.0229410357        0.8583021066        1.1387998276
Mo            4.9975527684        4.5501343925        2.6249627757
S             3.4725372163        3.6798148887        4.2825421818
S             3.4297773935        3.5796198362        1.0930734133
Mo            3.5096088002        7.2235330611        2.6658798990
S             5.0137778187        6.3449401448        1.0309010287
Mo            5.0256601755        9.9472082852        2.7226122246
S             3.4995452005        8.9858062682        4.3234709664
S             3.4272079900        9.0572582556        1.1177799616
Mo            0.3042670664        1.7636877112        2.7633660287
S             1.8887432379        0.8671852990        4.3521475362
S             1.8594503799        0.8510193321        1.1565859200
Mo            1.8693542719        4.5051718977        2.6997689108
S             0.2779477775        3.6368754634        4.3051113223
S             0.2730715723        3.5695926461        1.1363980461
Mo            0.2841626649        7.2317179558        2.7406160745
S             1.9393631096        6.3198461223        4.2925950375
S             1.8625807096        6.3490208183        1.1181377429
Mo            1.8723586167        9.9534038236        2.7584141499
S             0.3037172510        9.0252638409        4.3681981648
S             0.2806347866        9.0598490996        1.1709586049
H             8.8791384293        0.5896818656        5.5901591045
