36

Mo            6.5654554087        1.7459453302        2.7448540567
S             8.1118244034        0.8369812411        4.3692011055
S             8.1692110871        0.8319870445        1.1809237979
Mo            8.1403120278        4.4829895780        2.7182568993
S             6.5333385105        3.6525108884        4.2948891055
S             6.5837516804        3.5601453885        1.1051193011
Mo            6.5096029927        7.1856836979        2.6674545180
S             8.0706970723        6.2968162796        4.3047049504
S             8.1514460152        6.3194913744        1.1203930127
Mo            8.1382812311        9.9276848644        2.7716117925
S             6.5057547614        8.9557071467        4.3199256442
S             6.5937258325        9.0283966549        1.1227950935
Mo            3.4598293178        1.7773045132        2.7129676283
S             4.9855909462        0.8250207746        4.3163095070
S             5.0010407991        0.8358505089        1.1280265560
Mo            5.0132790122        4.5330842534        2.6385356046
S             3.5019274723        3.6634128780        4.2995145918
S             3.4525166063        3.5670396741        1.0940590828
Mo            3.4867305993        7.1989873080        2.6721650431
S             4.9942941838        6.3218410082        1.0363572710
Mo            4.9852555853        9.9190904622        2.7156421047
S             3.4903059587        8.9474335938        4.3389627175
S             3.3814715572        9.0321281875        1.1335429862
Mo            0.2672639896        1.7281233169        2.8079804924
S             1.7772910903        0.7759715248        4.5148353273
S             1.8464276053        0.8300500257        1.2172940619
Mo            1.8877881238        4.4736691495        2.7243549882
S             0.2780110957        3.6136221338        4.3344933999
S             0.2856673551        3.5351425133        1.1708226306
Mo            0.2699930258        7.2044290723        2.7458446321
S             1.9211592107        6.2953032148        4.3076841618
S             1.8565193207        6.3164900483        1.1316914940
Mo            1.8462237825        9.9215843598        2.8084106330
S             0.2498050667        8.9969870558        4.3759341867
S             0.2770520631        9.0447440633        1.1837287846
H             0.9342533323       11.2281972818        5.5254743743
