36

Mo            6.5262297431        1.7654893262        2.7422933770
S             8.1049838016        0.8906850211        4.3713744989
S             8.1150261096        0.8550687891        1.1704975510
Mo            8.0984550755        4.4887829749        2.7098291759
S             6.4680820152        3.6753731593        4.2808850812
S             6.5376122212        3.5709961650        1.0977551987
Mo            6.4777559918        7.2216850594        2.6644445555
S             8.0564720676        6.3052047966        4.2908798357
S             8.1108027158        6.3309525200        1.1176558426
Mo            8.1240794455        9.9715577250        2.7876512830
S             6.4829440163        9.0016547326        4.2824265175
S             6.5738450025        9.0650141899        1.1372271660
Mo            3.3892146716        1.7685558067        2.7360214317
S             4.9500394332        0.8516400141        4.3333136682
S             4.9610370823        0.8549272796        1.1382555919
Mo            4.9271396126        4.5189825029        2.6201154652
S             3.4200253658        3.6675085826        4.2941860931
S             3.3786804521        3.5621744827        1.0756106749
Mo            3.4645408163        7.1625785077        2.6762662513
S             4.9854616964        6.3205825034        1.0385201354
Mo            4.9572607797        9.9500655199        2.7210896398
S             3.4394156762        8.9512557923        4.3262933564
S             3.3734319882        9.0303191967        1.1319875040
Mo            0.2391172571        1.7601724498        2.7616183381
S             1.8295698907        0.8661760479        4.3623359384
S             1.8092480264        0.8397543214        1.1651043456
Mo            1.8242182922        4.4963892304        2.6983561004
S             0.2400784115        3.6166444780        4.3146552818
S             0.2289655913        3.5690675158        1.1302798859
Mo            0.2384092574        7.2278830322        2.7415317100
S             1.8843492051        6.2996313850        4.3024511008
S             1.8232916753        6.3380048789        1.1130478131
Mo            1.8240871787        9.9416311870        2.7744898952
S             0.2536687995        9.0348399652        4.3710505106
S             0.2381124028        9.0589807300        1.1838649355
H             6.3704507996        9.3652943191        5.6117217993
