36

Mo            6.5647275735        1.7279751227        2.7523711535
S             8.1384090423        0.8255157828        4.3616666111
S             8.1493924606        0.8148771847        1.1702768375
Mo            8.1304849032        4.4640504386        2.7182051971
S             6.5197942406        3.6385753958        4.2907834117
S             6.5559775978        3.5411479571        1.1159552014
Mo            6.5336304239        7.2028906760        2.6522353032
S             8.0811400596        6.2885926519        4.2983673200
S             8.1523030715        6.2892620841        1.1144787100
Mo            8.1457499447        9.9116697314        2.7641754554
S             6.5347640032        8.9315239590        4.3360320137
S             6.6047885131        9.0251826146        1.1117805543
Mo            3.4258966118        1.7009308850        2.7756237265
S             5.0167632827        0.7751805504        4.3519406881
S             4.9978361274        0.8082837421        1.1681964914
Mo            4.9681807172        4.5095680493        2.6567363789
S             3.4283982333        3.6215749550        4.2629171692
S             3.4141392406        3.5180058389        1.1249635503
Mo            3.5000892407        7.1303837018        2.6851403269
S             5.0169691222        6.2755729480        1.0502802554
Mo            5.0134506057        9.8787545805        2.7344293958
S             3.4848501862        8.9080338071        4.3332099565
S             3.4132564447        8.9895049762        1.1401817278
Mo            0.2744703619        1.7128259362        2.7616123692
S             1.8514134191        0.7993853231        4.3777059599
S             1.8597774503        0.7954431675        1.1753626940
Mo            1.8294007995        4.4601813123        2.7092319002
S             0.2487368988        3.5740580493        4.3177178596
S             0.2542122060        3.5270845406        1.1334227164
Mo            0.2723213300        7.1836253709        2.7383519447
S             1.9082426477        6.2735245036        4.3096683274
S             1.8558429613        6.2909022695        1.1185348520
Mo            1.8606120018        9.8952163439        2.7759778248
S             0.2683805726        8.9891775319        4.3598751545
S             0.2795109017        9.0167424853        1.1753274128
H             3.0706871482        3.6143663878        5.5976034203
