36

Mo            6.5573610021        1.7633214160        2.7579257652
S             8.1310050191        0.8663969424        4.3705999987
S             8.1412753999        0.8485946943        1.1798349288
Mo            8.1342267456        4.4961943667        2.7134301519
S             6.5181530200        3.6806884650        4.2870724170
S             6.5602028689        3.5696515128        1.1105058789
Mo            6.5350531320        7.2394430370        2.6489797525
S             8.0832695610        6.3198702478        4.2937779753
S             8.1574484325        6.3256950636        1.1088668201
Mo            8.1397166145        9.9484192936        2.7766689950
S             6.5276969375        8.9610148181        4.3440148055
S             6.6018594507        9.0671322904        1.1180054532
Mo            3.4189744213        1.7324094193        2.7793667265
S             5.0054654284        0.8109200003        4.3578933226
S             4.9904216970        0.8395992955        1.1745764217
Mo            4.9692839802        4.5400879103        2.6423819870
S             3.4340502653        3.6592521939        4.2517697439
S             3.4154278689        3.5409024328        1.1147307295
Mo            3.5071960717        7.1624982890        2.6754291274
S             5.0260897859        6.3147207658        1.0372469217
Mo            5.0075714662        9.9125737102        2.7410536778
S             3.4822593711        8.9300930665        4.3335232877
S             3.4084498607        9.0270567100        1.1410407944
Mo            0.2699564186        1.7459761116        2.7664155885
S             1.8430583521        0.8305133147        4.3843788881
S             1.8534153124        0.8231531874        1.1831407456
Mo            1.8339665150        4.4918493008        2.7001161181
S             0.2565653998        3.6108801314        4.3143434368
S             0.2557402202        3.5551110827        1.1307344132
Mo            0.2739852199        7.2194194213        2.7390820036
S             1.9165881301        6.3049722433        4.3000681189
S             1.8592656954        6.3275515357        1.1083937559
Mo            1.8540700868        9.9252174230        2.7844378153
S             0.2620730222        9.0239357699        4.3722496966
S             0.2695687087        9.0542168389        1.1849790869
H             3.1238888633        3.6545807754        5.5933045220
