36

Mo            6.5824342788        1.7623571087        2.7797810546
S             8.1581811128        0.8638771036        4.3863395650
S             8.1550561619        0.8594615628        1.1810055941
Mo            8.1752914039        4.5269755836        2.7061084351
S             6.5607491856        3.6986571740        4.2503566478
S             6.5951181105        3.5710791609        1.1214821236
Mo            6.5099159708        7.1983842893        2.6771037380
S             8.1073723144        6.3433526146        4.3006186143
S             8.1539001787        6.3574707365        1.1084430887
Mo            8.1521883048        9.9609603248        2.7811801906
S             6.5218975798        8.9675956019        4.3294744879
S             6.6017767862        9.0600265584        1.1372193163
Mo            3.4490279117        1.7947911816        2.7495326236
S             4.9921571269        0.8336994866        4.3521977490
S             5.0145384640        0.8726836779        1.1662360051
Mo            5.0375769075        4.5752339009        2.6378802580
S             3.4858962990        3.7134228208        4.2755151782
S             3.4496681709        3.6034241580        1.1024293232
Mo            3.4749088882        7.2735553107        2.6282905878
S             4.9970140797        6.3487032772        1.0338744429
Mo            4.9954521634        9.9420061259        2.7280039835
S             3.4718507449        8.9888569014        4.3231407543
S             3.4035753490        9.1000210464        1.0944342800
Mo            0.2794920714        1.7779865913        2.7687130371
S             1.8810571799        0.8886807955        4.3624125641
S             1.8622512761        0.8862707675        1.1743437218
Mo            1.8737503133        4.5313885582        2.7008317106
S             0.3016310670        3.6467374240        4.3118481657
S             0.2876790042        3.5848418031        1.1299181935
Mo            0.2837038799        7.2522717775        2.7269633581
S             1.9385924242        6.3579019991        4.2774517277
S             1.8516246738        6.3583208894        1.0912117292
Mo            1.8640989650        9.9776980975        2.7584180444
S             0.2922741036        9.0515390526        4.3600522665
S             0.2705105159        9.0883354718        1.1698448480
H             6.7953918218        3.7196663652        5.6080901683
