36

Mo            6.5756311732        1.7786686913        2.8038511147
S             8.1431662192        0.8737820244        4.4198200394
S             8.1615682609        0.8628145373        1.2280282725
Mo            8.1335993684        4.5136994543        2.7741681129
S             6.5365599943        3.6631908822        4.3627434225
S             6.5836210369        3.5806530800        1.1569395067
Mo            6.5343640310        7.2332439790        2.7309677236
S             8.0827860614        6.3333219685        4.3629883120
S             8.1535143254        6.3461176428        1.1751221495
Mo            8.1452645356        9.9637002259        2.8252636617
S             6.5378436630        9.0040197810        4.3902906422
S             6.6026958849        9.0734696803        1.1798655547
Mo            3.4350345436        1.7842290849        2.8095114859
S             5.0076492745        0.8483930123        4.3910848168
S             5.0004550358        0.8702843975        1.2094377989
Mo            5.0114592120        4.5335338117        2.6982102106
S             3.4762305200        3.6778028319        4.3578339485
S             3.4259557744        3.5867858805        1.1641341605
Mo            3.4656839864        7.2433533475        2.7215984943
S             5.0037046490        6.3492893868        1.0856903852
Mo            5.0019472764        9.9405811624        2.7821217564
S             3.4668310741        9.0057692887        4.3882854698
S             3.4029650401        9.0788076477        1.1744064439
Mo            0.2761750704        1.7696438216        2.8257030074
S             1.8653661353        0.8740334824        4.4232758183
S             1.8522582467        0.8679917015        1.2309709979
Mo            1.8697283789        4.5189124287        2.7736063310
S             0.2754721020        3.6337319977        4.3800744104
S             0.2737606230        3.5841122936        1.2078691191
Mo            0.2704812421        7.2346260405        2.8019014254
S             1.9141781720        6.3408435164        4.3590686075
S             1.8440137211        6.3489862070        1.1717525446
Mo            1.8602746975        9.9632894250        2.8241087695
S             0.2736253741        9.0537503754        4.4162913339
S             0.2710728655        9.0715648341        1.2313889016
H             4.9911649985        6.3598818209        3.6879480693
