36

Mo            6.5595303395        1.7753808874        2.8018855466
S             8.1495531096        0.8469037917        4.3746933772
S             8.1354737700        0.8600420143        1.1927577315
Mo            8.1336010656        4.5051952199        2.6923258792
S             6.5420331229        3.7114619133        4.3071712715
S             6.5550930051        3.5503423281        1.1106408522
Mo            6.5300488546        7.1896466927        2.6265438095
S             8.0878863577        6.3229949165        4.2715818685
S             8.1586070219        6.3207795643        1.0818643300
Mo            8.1305419365        9.9442777940        2.7590652760
S             6.5018336811        8.9570599005        4.2825415874
S             6.6144592620        9.0296249272        1.0713592257
Mo            3.4468649874        1.7765263703        2.8144782914
S             5.0098276021        0.9758827507        4.5662675066
S             4.9973827629        0.8571167248        1.2041816652
Mo            5.0041899622        4.5564853659        2.6487764579
S             3.4705840163        3.7166479921        4.3147501201
S             3.4503351272        3.5483381925        1.1223619071
Mo            3.4704414385        7.1882606094        2.6387721894
S             4.9960353850        6.3180864980        1.0174504996
Mo            4.9988429637        9.8679299314        2.6341086596
S             3.4983384572        8.9626570954        4.2899185821
S             3.3805723929        9.0236895130        1.0811089109
Mo            0.2744184691        1.7510200040        2.7769717095
S             1.8496647423        0.8499599563        4.3853233292
S             1.8742125043        0.8608490172        1.1990653955
Mo            1.8727121851        4.5062464314        2.7044342349
S             0.2697030450        3.6269565708        4.3094656091
S             0.2786135278        3.5555523128        1.1439138667
Mo            0.2723888500        7.2285005376        2.7164804505
S             1.9055989268        6.3261759596        4.2841267519
S             1.8484762804        6.3194418665        1.0896291591
Mo            1.8693808296        9.9470890749        2.7670691845
S             0.2684973047        9.0351110353        4.3480431238
S             0.2753166505        9.0763878943        1.1660465153
H             5.0450426301        2.0209692007        5.4955727018
