36

Mo            6.5648838396        1.7540305867        2.7317394779
S             8.1081547500        0.8285887552        4.3675068006
S             8.1462591686        0.8252417698        1.1585792116
Mo            8.0871609442        4.5101084660        2.7087207483
S             6.5034145587        3.6603697931        4.2854431557
S             6.5784372043        3.5529856442        1.0807333053
Mo            6.4899826071        7.2222936499        2.6655973652
S             8.0534045403        6.3268352734        4.3021406320
S             8.1341385005        6.3290740827        1.1129416571
Mo            8.1264437156        9.9311018397        2.7642938845
S             6.5008678788        8.9672501435        4.3299335693
S             6.5844417222        9.0418850821        1.1104654333
Mo            3.4116371333        1.7553143154        2.7488901251
S             4.9948425337        0.8311451140        4.3232830430
S             4.9802566162        0.8436179949        1.1476284603
Mo            4.9918079167        4.4930426533        2.6141373684
S             3.4876548657        3.6689129606        4.2998074595
S             3.3995507441        3.5496052335        1.0977083715
Mo            3.4937177645        7.2248049546        2.6814166387
S             4.9842074758        6.3161582017        1.0439635121
Mo            4.9905592606        9.9229454779        2.7176044789
S             3.4852608925        8.9760136435        4.3421658777
S             3.3917642717        9.0409463467        1.1236735267
Mo            0.2592101061        1.6914475213        2.7760003396
S             1.8610494089        0.8350366852        4.3818180051
S             1.8353307287        0.8243787913        1.1719931659
Mo            1.8991055260        4.5138657112        2.7296072234
S             0.2518466173        3.6123529960        4.2106189811
S             0.2759690978        3.5582828941        1.1868303484
Mo            0.2643095333        7.2063534312        2.7422524599
S             1.9255858201        6.3323058919        4.3178425924
S             1.8593475730        6.3273596041        1.1262701898
Mo            1.8535628966        9.9345343984        2.7779782094
S             0.2575056075        9.0168889752        4.3571312158
S             0.2680808931        9.0404889013        1.1812970627
H             9.6293542988        3.6583452938        5.5727336804
