36

Mo            6.5398224037        1.7432126699        2.7388163267
S             8.1081378215        0.8481102266        4.3655909272
S             8.1371152850        0.8257168270        1.1735241722
Mo            8.1143423359        4.4207546039        2.7234284450
S             6.4804012270        3.6341913213        4.2949191984
S             6.5632930686        3.5386045581        1.0924829948
Mo            6.4156495510        7.2681695093        2.6740877380
S             8.0307452369        6.3062474469        4.2105950587
S             8.1106476945        6.3179941121        1.1859506078
Mo            8.1156956482        9.9293503171        2.7789943147
S             6.4737654615        8.9913443559        4.3566860952
S             6.5665620950        9.0535967269        1.1120596567
Mo            3.4082903194        1.7481529975        2.7381433475
S             4.9697673091        0.8305757451        4.3329964441
S             4.9743399801        0.8365312879        1.1398891705
Mo            4.9743727119        4.5016734100        2.6099941664
S             3.4577394441        3.6546576646        4.2890972408
S             3.3908728438        3.5518834216        1.0916361780
Mo            3.4910485177        7.1910177611        2.7015976128
S             4.9718489569        6.3145299758        1.0341804875
Mo            4.9753842657        9.9293020417        2.7274918208
S             3.4604084313        8.9711382156        4.3479679047
S             3.3782494301        9.0253499005        1.1396565900
Mo            0.2582139904        1.7354809728        2.7716138380
S             1.8543064735        0.8530935079        4.3688137716
S             1.8242393161        0.8257944684        1.1687633893
Mo            1.8391486421        4.4824148841        2.7198255631
S             0.2607832542        3.5838047189        4.3346692274
S             0.2506204175        3.5430950054        1.1401489004
Mo            0.2752213166        7.2256974653        2.7700854511
S             1.9233526056        6.3018226331        4.3164963928
S             1.8337588163        6.3290857931        1.1492636537
Mo            1.8324061282        9.9354324677        2.7810661724
S             0.2520497548        9.0423079975        4.3808809881
S             0.2492418413        9.0388494464        1.1901799521
H             8.0657621943        6.2235730643        5.5747290213
