36

Mo            6.5485377966        1.7679531629        2.7849511852
S             8.1324863600        0.8613261493        4.3713057614
S             8.1161057468        0.8705769807        1.1766123208
Mo            8.1299136929        4.5562973189        2.6467702230
S             6.4260536220        3.6501792266        4.4492148795
S             6.5311904387        3.5826080744        1.1467343037
Mo            6.5444546079        7.2017898516        2.6400977588
S             8.0914427160        6.3287417184        4.2849542600
S             8.1563649111        6.3558093234        1.0649110794
Mo            8.1314736753        9.9585305473        2.7610180086
S             6.5224148666        8.9495415672        4.3144054015
S             6.5810898473        9.0610098215        1.1131661109
Mo            3.4111171879        1.7679489669        2.7567780318
S             4.9718657504        0.8208493688        4.3530263846
S             4.9958124226        0.8652832608        1.1770785607
Mo            4.9590644233        4.5476955888        2.6992764456
S             3.4111893900        3.6719765311        4.3072685388
S             3.4348601605        3.5752412510        1.1192754917
Mo            3.4750050855        7.1969625745        2.6712907082
S             4.9951690002        6.3085416625        1.0592517244
Mo            4.9897548693        9.9239334296        2.7295501098
S             3.4578585798        8.9658159016        4.3188556729
S             3.4028399451        9.0482655403        1.1249480830
Mo            0.2435981769        1.7688771101        2.7541119516
S             1.8312414046        0.8672966256        4.3577902820
S             1.8335388609        0.8612541752        1.1657524670
Mo            1.8436429475        4.5077710517        2.6981024529
S             0.2256524833        3.6454682633        4.2773157362
S             0.2504174372        3.5779058056        1.1095423351
Mo            0.2674889938        7.2400729597        2.7153700111
S             1.8972860223        6.3203586777        4.2882791622
S             1.8621034361        6.3447748704        1.0993907908
Mo            1.8433426496        9.9550247068        2.7574873577
S             0.2611980888        9.0399483714        4.3476072871
S             0.2599582818        9.0767929920        1.1578504381
H             5.6905686888        3.0814896496        5.4914062602
