36

Mo            6.5414681697        1.7840517117        2.8126004340
S             8.1117214480        0.8780178993        4.4212710250
S             8.1184350495        0.8663452941        1.2282461548
Mo            8.1110888532        4.5147375139        2.7833871434
S             6.5148974009        3.6633551075        4.3757411910
S             6.5557875975        3.5852904967        1.1708360701
Mo            6.5116077015        7.2294025506        2.7408465280
S             8.0678190063        6.3373771483        4.3723471608
S             8.1294538078        6.3459725321        1.1871746472
Mo            8.1115407986        9.9654587029        2.8268450281
S             6.5066437167        9.0058242294        4.3912301263
S             6.5675514856        9.0668559500        1.1827607705
Mo            3.4030418466        1.7851214701        2.8055466273
S             4.9666511232        0.8482694089        4.3930252962
S             4.9739529244        0.8755217702        1.2137704256
Mo            4.9848089374        4.5339066932        2.7160627976
S             3.4441618627        3.6674509115        4.3645060833
S             3.4048611934        3.5908708958        1.1667675430
Mo            3.4343742157        7.2397918823        2.7267384670
S             4.9794093554        6.3444955537        1.1010748646
Mo            4.9695486282        9.9413125461        2.7820161736
S             3.4331882025        9.0055237981        4.3863900811
S             3.3720594816        9.0746161518        1.1746551173
Mo            0.2438745603        1.7705424906        2.8191169163
S             1.8337648541        0.8745141517        4.4124419509
S             1.8211560453        0.8700117799        1.2226932738
Mo            1.8450119878        4.5195299049        2.7748274010
S             0.2550184031        3.6275245793        4.3790641518
S             0.2475619446        3.5903617021        1.2057181768
Mo            0.2446423404        7.2387858199        2.8087074565
S             1.8841215650        6.3413312918        4.3640611611
S             1.8152321580        6.3529942098        1.1778168324
Mo            1.8276205964        9.9645847059        2.8188577449
S             0.2438553203        9.0613809980        4.4154649964
S             0.2362548412        9.0699683103        1.2314239003
H             4.9631640334        6.3357795815        3.7007278188
