36

Mo            6.5666142011        1.7454818308        2.7420629322
S             8.1120580383        0.8361729077        4.3672314594
S             8.1712389644        0.8324316886        1.1798360788
Mo            8.1396811586        4.4834579156        2.7140459123
S             6.5322930346        3.6527285195        4.2907606231
S             6.5834851420        3.5595364425        1.1007974791
Mo            6.5101650553        7.1855509172        2.6614453268
S             8.0700070472        6.2976696437        4.2991948706
S             8.1512365083        6.3185298569        1.1136847689
Mo            8.1389635963        9.9278899001        2.7684165070
S             6.5055193139        8.9556404198        4.3147032121
S             6.5944499118        9.0298524998        1.1186006724
Mo            3.4611942225        1.7777387145        2.7067825857
S             4.9856259245        0.8254492092        4.3115951470
S             5.0025310956        0.8365599780        1.1231331200
Mo            5.0124687802        4.5321662064        2.6334044241
S             3.5008917410        3.6616174917        4.2937553974
S             3.4505738045        3.5657818347        1.0890195085
Mo            3.4882070778        7.1988773765        2.6687420120
S             4.9939671829        6.3215193826        1.0317678347
Mo            4.9852618317        9.9200430116        2.7113545697
S             3.4926554516        8.9474902928        4.3365562136
S             3.3803126075        9.0324594017        1.1318885517
Mo            0.2673747259        1.7286233222        2.8073680047
S             1.7785963076        0.7764152916        4.5142300434
S             1.8450373584        0.8280138329        1.2171237968
Mo            1.8871325888        4.4732972236        2.7202817568
S             0.2773092354        3.6157852071        4.3323463500
S             0.2852409208        3.5342651541        1.1688138554
Mo            0.2700731794        7.2047038363        2.7411711086
S             1.9216655494        6.2952141668        4.3024408376
S             1.8588412037        6.3162981229        1.1269767967
Mo            1.8470606608        9.9205185538        2.8077960372
S             0.2497790306        8.9965118925        4.3732945696
S             0.2782784732        9.0451087202        1.1821657596
H             0.9273071975        0.3015456449        5.5175517482
