36

Mo            6.5710727600        1.7424401258        2.7444109294
S             8.1328269470        0.8359995825        4.3665897295
S             8.1258642862        0.8368355291        1.1639178843
Mo            8.1247870965        4.5024033485        2.7470584915
S             6.4782618444        3.9931444555        4.5916153743
S             6.5363646100        3.5747299976        1.1803640227
Mo            6.5807310820        7.1680343950        2.6443323904
S             8.1362077166        6.3369981729        4.3154139179
S             8.1821663405        6.2947049594        1.0997307712
Mo            8.1408519733        9.9280215412        2.7564303791
S             6.5393099207        8.9176546549        4.3146580311
S             6.6037975433        9.0275741385        1.1120974942
Mo            3.4352579053        1.7324258437        2.7564536036
S             4.9909326047        0.7863421239        4.3380719166
S             5.0099443937        0.8128436118        1.1641908215
Mo            4.9544563762        4.5439919407        2.7294526928
S             3.4206893201        3.6195302512        4.3291440191
S             3.4383414416        3.5478437282        1.1330950131
Mo            3.4700045249        7.1437448768        2.6872396038
S             5.0107999615        6.2850359616        1.0748819002
Mo            5.0048417536        9.8761576103        2.7300293313
S             3.4630803277        8.9294626865        4.3253250711
S             3.4167214505        9.0005546754        1.1330215663
Mo            0.2533162431        1.7298114974        2.7648877533
S             1.8572247566        0.8299462840        4.3563681424
S             1.8456539823        0.8320349897        1.1691400155
Mo            1.8523523930        4.4694853788        2.7232736046
S             0.2581128288        3.5913494843        4.3257270027
S             0.2401609166        3.5509184019        1.1576022604
Mo            0.2905569580        7.2075659473        2.7278158220
S             1.9052657278        6.2830208396        4.3171696495
S             1.8702954914        6.2993023419        1.1126820551
Mo            1.8598765589        9.9260046951        2.7557836077
S             0.2803201465        9.0241964087        4.3436877125
S             0.2741609177        9.0442028879        1.1568167601
H             6.2222445776        2.6852774875        4.9422682357
