36

Mo            6.5636407657        1.7538151098        2.7414063672
S             8.1385017188        0.8543624749        4.3516100543
S             8.1441846904        0.8412979458        1.1555589476
Mo            8.1112631275        4.4751931744        2.6849569610
S             6.5196564282        3.6531986979        4.2997984589
S             6.5671397070        3.5559401230        1.0930037135
Mo            6.5336735639        7.2253788423        2.6990346830
S             8.0908473513        6.4035606528        4.3881854036
S             8.1518368516        6.3333120723        1.1472737302
Mo            8.1467601280        9.9450767021        2.7586084590
S             6.5313473737        8.9938573571        4.3359106410
S             6.5945009558        9.0364571666        1.1239281902
Mo            3.4268737956        1.7578143577        2.7474089342
S             4.9940221173        0.8277238632        4.3348688839
S             4.9925079361        0.8349026525        1.1575610563
Mo            4.9973610607        4.5216728943        2.6480363622
S             3.4612931229        3.6626475603        4.3042916116
S             3.4280161528        3.5668608560        1.1072622018
Mo            3.4880315448        7.1680612996        2.6995820134
S             5.0234703502        6.3262990039        1.0715402099
Mo            4.9988798579        9.9144630962        2.7306499990
S             3.4742695287        8.9579484026        4.3325366313
S             3.4101403592        9.0149383500        1.1407418183
Mo            0.2737027118        1.7386607198        2.7493442834
S             1.8627716933        0.8556821128        4.3584374797
S             1.8522651222        0.8316375363        1.1607819905
Mo            1.8575267314        4.4975071965        2.7156703099
S             0.2537689231        3.6006123878        4.2983743471
S             0.2637938220        3.5574009151        1.1307982659
Mo            0.2817844574        7.2257000182        2.7608202551
S             1.9206868572        6.2963688524        4.3262845015
S             1.8598766402        6.3323214623        1.1347211659
Mo            1.8607390079        9.9388511397        2.7652910521
S             0.2788442412        9.0498992915        4.3605436310
S             0.2759748249        9.0427312967        1.1713926483
H             8.2484023802        7.1747241594        5.5401075578
