36

Mo            6.5251332001        1.7888717311        2.7606589515
S             8.0850090419        0.8882360867        4.3751445515
S             8.0969361663        0.8722338551        1.1703851842
Mo            8.0885404581        4.5079673835        2.7206721766
S             6.4814276715        3.6856326729        4.3160654236
S             6.5238674700        3.5915549360        1.1138258311
Mo            6.5272541907        7.2122476231        2.6462904184
S             8.0300912986        6.3070923880        4.3165276983
S             8.1268059263        6.3187571115        1.0957008258
Mo            8.0563999698        9.9876143398        2.7675343449
S             6.4785792806        8.9601341093        4.3241306534
S             6.5470828104        9.0743370715        1.1128215640
Mo            3.3922900221        1.7872082711        2.7640006707
S             4.9612145233        0.8433864360        4.3449883166
S             4.9566428255        0.8665898268        1.1741894710
Mo            4.9512890093        4.5539395874        2.6663899200
S             3.4315282165        3.6811397289        4.3249682693
S             3.3946367747        3.5832326065        1.1137217827
Mo            3.3953740633        7.1944095435        2.6584789782
S             4.9596625710        6.3392570992        1.0611104820
Mo            4.9601585132        9.9275302441        2.7354059800
S             3.4344405137        8.9595718291        4.3220960851
S             3.3733717884        9.0623821579        1.1205446762
Mo            0.2307490012        1.7547026153        2.7691819433
S             1.8320326175        0.8806121086        4.3765373621
S             1.8190566842        0.8708295379        1.1688905320
Mo            1.8314804002        4.5045848615        2.7225033212
S             0.2310098350        3.6143338231        4.3215344203
S             0.2315915205        3.5713011101        1.1548621298
Mo            0.2313101801        7.1781092312        2.7457818117
S             1.8848192810        6.3006089079        4.3239891444
S             1.7974319487        6.3165400681        1.1001220907
Mo            1.8586998884        9.9837484305        2.7671887405
S             0.2290588370        9.0525720215        4.2443425697
S             0.2296563244        9.0662218661        1.2176037505
H             9.6937230773        9.1080329678        5.6081327483
