36

Mo            6.5688428747        1.7804419043        2.7774121832
S             8.1412143096        0.8654800111        4.3783098404
S             8.1451603008        0.8771159380        1.1887182065
Mo            8.1234185724        4.5266373233        2.7210357234
S             6.5275480705        3.6946143407        4.3245680392
S             6.5562887282        3.5860454860        1.1292009480
Mo            6.5219356513        7.2178609468        2.6537447867
S             8.0646319429        6.3502793753        4.2942376096
S             8.1339006879        6.3441851768        1.1012567722
Mo            8.1482514933        9.9641333440        2.7659220112
S             6.5278382327        8.9821834254        4.3183287216
S             6.5925054613        9.0707517687        1.1178186892
Mo            3.4438769669        1.7862657546        2.7741806436
S             5.0033980210        0.8344356511        4.3583320145
S             5.0083939418        0.8742152947        1.1775338852
Mo            5.0013806098        4.5778750455        2.6724236357
S             3.4682979645        3.6988379838        4.3239193705
S             3.4628322577        3.5789361665        1.1184359327
Mo            3.5040347694        7.2294593711        2.6407896624
S             5.0107048050        6.3307903709        1.0255776300
Mo            4.9995314197        9.9355226290        2.7276072751
S             3.4829963604        8.9572440891        4.3330363190
S             3.4010644836        9.0779591430        1.1161027278
Mo            0.2673202773        1.7748302641        2.7844131459
S             1.8654524135        0.8732819080        4.3798291464
S             1.8572768683        0.8753751652        1.1968599145
Mo            1.8711583326        4.4931352340        2.7039993980
S             0.2724751098        3.6449986046        4.3315204007
S             0.2536006686        3.5739086692        1.1510172621
Mo            0.2440257671        7.2558090751        2.7271391799
S             1.9077778825        6.3519473541        4.2036817416
S             1.8507487474        6.3460550966        1.1195667555
Mo            1.8639714304        9.9592469698        2.7795351706
S             0.2724556662        9.0522389679        4.3666221292
S             0.2815996323        9.0933638157        1.1692958262
O             1.9279385125        6.3314180797        5.7027888386
