36

Mo            6.5801229036        1.7448580688        2.7348829037
S             8.1438238139        0.8384217302        4.3626729892
S             8.1742397821        0.8168531951        1.1668399136
Mo            8.1160446552        4.4758411565        2.6995795339
S             6.5254949113        3.6473071791        4.2905144707
S             6.5627435131        3.5436011971        1.0852822542
Mo            6.5155119439        7.1724533673        2.6671169077
S             8.0488542293        6.2736604970        4.3094040718
S             8.1344064442        6.3208819179        1.1159432658
Mo            8.1675174975        9.9225904393        2.7778020501
S             6.5659774985        8.9522822541        4.3247949965
S             6.6001496028        9.0354678317        1.1394550484
Mo            3.4461724169        1.7375470704        2.7722004105
S             5.0457700055        0.8620635562        4.3659837940
S             4.9922635889        0.8321235027        1.1561977368
Mo            5.0056065051        4.5102026380        2.6432947407
S             3.4749593255        3.6578804409        4.3087139574
S             3.4245660412        3.5416078421        1.1140862287
Mo            3.5321659164        7.1082600127        2.7976747368
S             4.9582328254        6.3139638046        1.0666446984
Mo            5.0403027962        9.9429496672        2.7677890403
S             3.5458441657        9.2592132852        4.6351209932
S             3.4318173989        8.9584688267        1.2685454913
Mo            0.2799208346        1.7191277497        2.7741148841
S             1.8654694570        0.8625408356        4.4035407480
S             1.8762638666        0.7869563434        1.2035084163
Mo            1.8436416911        4.4557199352        2.7233267128
S             0.2427228256        3.5798768868        4.3196023941
S             0.2690471954        3.5303665870        1.1460389856
Mo            0.2412535574        7.2028355060        2.7641753437
S             1.8107015963        6.2349696442        4.3001658708
S             1.8667660980        6.3057573089        1.1687306043
Mo            1.8706242858        9.9100879857        2.8526870072
S             0.2629561466        8.9968123035        4.4013613686
S             0.3176747966        9.0307768559        1.2111382410
O             3.8957213244        7.6825523213        4.8158307267
