36

Mo            6.5277030165        1.7579591029        2.7468520873
S             8.0974256996        0.8526716769        4.3605638560
S             8.0945823490        0.8337178462        1.1543079191
Mo            8.0622622620        4.5170642682        2.6853097738
S             6.4914648069        3.6686859922        4.2933363499
S             6.5110632136        3.5536619364        1.0878792339
Mo            6.4851699174        7.1891401865        2.6612150362
S             8.0438628076        6.3062701397        4.3004534109
S             8.1051774918        6.3462389331        1.0933062413
Mo            8.0966986990        9.9405790920        2.7620313131
S             6.4890288676        8.9502343768        4.3210662327
S             6.5512113553        9.0338549832        1.1218213259
Mo            3.3890512235        1.7569858947        2.7545015813
S             4.9608189430        0.8197381860        4.3395364527
S             4.9555713178        0.8380984968        1.1635567083
Mo            4.9606360689        4.5248075491        2.6443363135
S             3.4303760139        3.6716001195        4.2962296366
S             3.4081408776        3.5526272135        1.0938615838
Mo            3.4342629903        7.1907433247        2.6724052505
S             4.9544034803        6.3170528976        1.0463254069
Mo            4.9592499151        9.9061887413        2.7303220114
S             3.4368580244        8.9512532359        4.3341014285
S             3.3631768884        9.0338955953        1.1327314960
Mo            0.2318402536        1.7078673683        2.7455193655
S             1.8161442347        0.8540307227        4.3712921582
S             1.8276651613        0.8243462390        1.1649032840
Mo            1.8597011853        4.5202541417        2.6903921130
S             0.2311450528        3.6099913572        4.2080608937
S             0.2356785148        3.5602870535        1.1514927203
Mo            0.2290947894        7.2152189524        2.7363816923
S             1.8679242067        6.3086798005        4.3062643917
S             1.8180964244        6.3499173371        1.1005884611
Mo            1.8213890490        9.9373763711        2.7764093257
S             0.2234781589        9.0255108625        4.3621725137
S             0.2352616371        9.0551603065        1.1749950924
O             9.6727410037        3.6422027762        5.7062249153
