36

Mo            6.5566174648        1.7118688438        2.7606453630
S             8.1219056972        0.8001416366        4.3738680670
S             8.1324891541        0.8109451807        1.1675218385
Mo            8.1101369087        4.4518570813        2.7135625258
S             6.5152160183        3.6183913673        4.3116386525
S             6.5419175872        3.5169035537        1.1144549471
Mo            6.5165646900        7.1390592080        2.6734014827
S             8.0841988671        6.2586769277        4.3081211250
S             8.1223540055        6.2710331515        1.1022211340
Mo            8.1094467695        9.9070908574        2.7544711083
S             6.5229286465        8.9044313756        4.3242601962
S             6.5735198165        8.9755673722        1.1183494679
Mo            3.4185941735        1.7136900588        2.7674554743
S             4.9900194373        0.7640142362        4.3502924264
S             4.9862881230        0.7941263560        1.1772519172
Mo            4.9882427060        4.4927448115        2.6656339750
S             3.4631137547        3.6247739167        4.3204843190
S             3.4280954845        3.5181491445        1.1244016586
Mo            3.4628431844        7.1353840814        2.6697616741
S             4.9936161907        6.2669035100        1.0521931505
Mo            4.9899205020        9.8512704245        2.7326953531
S             3.4590395355        8.9002290251        4.3234079924
S             3.4044024916        8.9752253437        1.1212598428
Mo            0.2579001200        1.6961551550        2.7731767806
S             1.8511663769        0.8058837913        4.3783181053
S             1.8433481075        0.8148927215        1.1717038317
Mo            1.8616590074        4.4505578055        2.7225653548
S             0.2502350554        3.5615344555        4.3208064876
S             0.2604479260        3.5144101087        1.1537918572
Mo            0.2621107744        7.1400454616        2.7227448787
S             1.8977033218        6.2597753819        4.3100471417
S             1.8527801722        6.2629476817        1.1026635822
Mo            1.8702971068        9.9091043915        2.7600964142
S             0.2609006521        8.9789962120        4.2641621007
S             0.2647313327        9.0076148073        1.1831869547
O             0.2475958500        8.9624843061        5.7641443562
