36

Mo            6.5440420000        1.7229063163        2.7596188193
S             8.1185671257        0.8249001091        4.3641481099
S             8.1119512388        0.8134080734        1.1628518992
Mo            8.1029041178        4.4751328919        2.7114869730
S             6.5050380625        3.6395825376        4.3114220805
S             6.5310000341        3.5387788678        1.1184483486
Mo            6.4968081124        7.1586576368        2.6642912826
S             8.0605401505        6.2843078482        4.2983281091
S             8.1166980817        6.3015944703        1.1071295807
Mo            8.1180986204        9.9145647860        2.7622371427
S             6.5005921745        8.9241561021        4.3186953600
S             6.5685325076        9.0056845955        1.1219127151
Mo            3.4302380130        1.7570472212        2.7503028655
S             4.9702368138        0.7922225789        4.3434560252
S             4.9816090539        0.8128616136        1.1619764777
Mo            4.9742721223        4.5233998979        2.6638193795
S             3.4491775820        3.6477641431        4.3200359489
S             3.4184918746        3.5607849922        1.1091514387
Mo            3.4574113601        7.1608944289        2.6758776647
S             4.9713037807        6.2928014976        1.0462819250
Mo            4.9716074619        9.8832343672        2.7257565732
S             3.4460948292        8.9255798813        4.3259538490
S             3.3908176559        8.9930807617        1.1167403089
Mo            0.2224237142        1.7413241736        2.7510279694
S             1.8336848805        0.8222189594        4.2721425979
S             1.8314602104        0.8254433755        1.1860042558
Mo            1.8450011275        4.4712368252        2.7185240179
S             0.2410193336        3.5858154164        4.3224171317
S             0.2437425703        3.5568159571        1.1383179538
Mo            0.2388283983        7.1981661744        2.7320181370
S             1.8771430477        6.2834601913        4.3043276273
S             1.8335532833        6.3042269595        1.1182189507
Mo            1.8309488156        9.8835201597        2.7514712884
S             0.2446432793        9.0035481146        4.3592942149
S             0.2335207943        9.0218244281        1.1541032611
O             1.8110958946        0.8300000571        5.7725495889