36

Mo            6.6547256876        1.8160273622        2.9177944163
S             8.3055203301        0.8648232658        4.3810932946
S             8.1172321587        0.8626332156        1.2119375095
Mo            8.1605517100        4.5367591515        2.6932521155
S             6.5869611099        3.8198855907        4.3368862470
S             6.5800373806        3.5361004999        1.1565733631
Mo            6.5550856624        7.1926910158        2.6638045106
S             8.1416420203        6.3402161728        4.2834737324
S             8.1628473069        6.3429854155        1.0822216126
Mo            8.1574519979        9.9507589541        2.7957637843
S             6.5542686055        8.9511122730        4.3543919685
S             6.6016087764        9.0457575546        1.1482659058
Mo            3.3924480411        1.7544536198        2.8024511344
S             4.5244137690        0.5279798216        4.6209374292
S             5.0656178201        0.8592422656        1.3644354983
Mo            5.0216941890        4.5385043539        2.6754766050
S             3.4774367044        3.6771542380        4.3173257896
S             3.4664208015        3.5467026041        1.1143865992
Mo            3.4826512110        7.1656186309        2.6331230854
S             5.0369326286        6.3041745133        1.0383558643
Mo            4.9774307627        9.8330994763        2.7836760978
S             3.4401182528        8.8565409908        4.3349195225
S             3.4203922494        9.0321780318        1.1061477027
Mo            0.3068878672        1.7566662315        2.7302606400
S             1.7933353895        0.8472621182        4.3644088942
S             1.8919206205        0.8294522087        1.1440251564
Mo            1.8959118352        4.5010909632        2.6773253535
S             0.3050362926        3.6327026123        4.2866783172
S             0.2910407431        3.5812051552        1.1033684627
Mo            0.2965732724        7.2249142091        2.7006849716
S             1.9178258438        6.2949133761        4.2667472102
S             1.8733458482        6.3257717059        1.0670253942
Mo            1.8709524011        9.9335180064        2.7527619548
S             0.3029307044        9.0099496548        4.3502834495
S             0.2701364847        9.0766248786        1.1609667434
O             5.8774672001        1.3257984950        4.8695172400
