36

Mo            6.5976323992        1.7234505247        2.7564137680
S             8.1718621054        0.8278190271        4.3621728435
S             8.1677372968        0.8124469790        1.1648075686
Mo            8.1620175392        4.4757780582        2.7124461505
S             6.5630702235        3.6371390300        4.3080251628
S             6.5914515612        3.5374211310        1.1157277578
Mo            6.5530081797        7.1585635688        2.6670687535
S             8.1148576904        6.2832497459        4.3048212200
S             8.1765139225        6.3046918566        1.1134107737
Mo            8.1768070925        9.9131147482        2.7651097336
S             6.5574023439        8.9264334250        4.3185745778
S             6.6262313741        9.0059891088        1.1241031659
Mo            3.4845206120        1.7541217748        2.7494589849
S             5.0255151814        0.7936217047        4.3425475700
S             5.0345902579        0.8136708059        1.1589795378
Mo            5.0336780768        4.5202354886        2.6592861661
S             3.5102886659        3.6468257473        4.3165088851
S             3.4756303295        3.5579349321        1.1063568662
Mo            3.5182367806        7.1629409447        2.6697234631
S             5.0330492738        6.2905630106        1.0429673707
Mo            5.0298712289        9.8861428679        2.7239121783
S             3.5069370559        8.9253027933        4.3224831324
S             3.4490010784        8.9977110963        1.1132000548
Mo            0.2793117617        1.7437404490        2.7521732881
S             1.8883275613        0.8227142660        4.2725793758
S             1.8855040381        0.8231451630        1.1859234407
Mo            1.9052411118        4.4726729427        2.7170284944
S             0.3015287389        3.5901844485        4.3234828502
S             0.3025054772        3.5588369559        1.1365079395
Mo            0.2988010368        7.1953242778        2.7408601187
S             1.9474944493        6.2846621226        4.3040972584
S             1.8890199769        6.3069379556        1.1189682695
Mo            1.8889025354        9.8834455827        2.7528381434
S             0.3056612357        9.0034147541        4.3637358996
S             0.2922853553        9.0143522132        1.1616137860
O             1.8801067974        0.8263469102        5.7724253224
