36

Mo            6.5269633285        1.7764576953        2.7457656718
S             8.1027189455        0.8791499768        4.3579536103
S             8.1089329773        0.8842124867        1.1493929973
Mo            8.0832340098        4.5218398283        2.7190171163
S             6.4786938522        3.6799304922        4.3030150824
S             6.5213958400        3.5880755194        1.1028075506
Mo            6.4792294662        7.1718207339        2.6539656663
S             8.0256868481        6.3287260521        4.3214915789
S             8.1129022245        6.3372036454        1.1099384837
Mo            8.1313460390        9.9797511684        2.7431414949
S             6.5123112413        8.9903656416        4.2288015993
S             6.5619273463        9.0472568465        1.1279166346
Mo            3.3931526171        1.7743595192        2.7377254145
S             4.9555106739        0.8372793171        4.3334869806
S             4.9612486023        0.8706390696        1.1411398100
Mo            4.9590331048        4.5508869101        2.6434693316
S             3.4339642283        3.6752369437        4.2961050362
S             3.3910610005        3.5852892537        1.1010832441
Mo            3.4371636018        7.2030536361        2.6663631337
S             4.9436869060        6.3261952676        1.0277938096
Mo            4.9481107908        9.9438243724        2.7070854726
S             3.4457379208        8.9676229112        4.3190245556
S             3.3560407929        9.0380844981        1.1134430953
Mo            0.2297407340        1.7724026317        2.7537028018
S             1.8243312145        0.8730870365        4.3511927203
S             1.8088979153        0.8566725614        1.1618005174
Mo            1.8304478606        4.5169926104        2.7129998758
S             0.2310377145        3.6300146445        4.3165690907
S             0.2267889832        3.5931655867        1.1471554559
Mo            0.2219430479        7.2366045788        2.7478365190
S             1.8718253925        6.3281396634        4.3050112641
S             1.8061842872        6.3488712914        1.1211709638
Mo            1.8224030869        9.9479169887        2.7615412994
S             0.2302608597        9.0565815153        4.3572745268
S             0.2479218542        9.0579716895        1.1617192063
O             6.5042672594        9.0198416047        5.7271859381
