36

Mo            6.5556782397        1.7410954000        2.7568012904
S             8.1276240802        0.8387699550        4.3704138002
S             8.1403828689        0.8523622886        1.1676842617
Mo            8.1197873810        4.4899411918        2.7103119465
S             6.5179948458        3.6528941604        4.3005941171
S             6.5548352879        3.5495328627        1.1042353826
Mo            6.5123108571        7.1395803668        2.6456960751
S             8.0583452720        6.2927995498        4.3115826533
S             8.1473943199        6.3108874868        1.0983304429
Mo            8.1579648301        9.9483136031        2.7532881635
S             6.5361781283        8.9449725548        4.2298300725
S             6.5861409335        9.0286457054        1.1362416886
Mo            3.4219242906        1.7452089945        2.7626045153
S             4.9886579158        0.7994401675        4.3488345604
S             4.9795712138        0.8426671495        1.1564526196
Mo            4.9936214992        4.5206519792        2.6438650646
S             3.4727899194        3.6574025251        4.3068976066
S             3.4237657528        3.5441576150        1.1102073622
Mo            3.4661930929        7.1695865428        2.6694933096
S             4.9726890335        6.2958582713        1.0265873224
Mo            4.9691804551        9.9133462668        2.7153711723
S             3.4741505655        8.9343121344        4.3293298504
S             3.3763622325        9.0109837702        1.1246664882
Mo            0.2591994555        1.7383470451        2.7735566850
S             1.8485358348        0.8385069096        4.3780872362
S             1.8393965662        0.8235093681        1.1889271032
Mo            1.8650406104        4.4832006365        2.7176926621
S             0.2613931302        3.6043756585        4.3211734283
S             0.2683354504        3.5495839110        1.1527605851
Mo            0.2521744130        7.2035549576        2.7442634645
S             1.8992011335        6.2947841969        4.3060028299
S             1.8404462458        6.3101026951        1.1185965759
Mo            1.8476678066        9.9144753820        2.7810061526
S             0.2497797492        9.0149539350        4.3642928795
S             0.2746684503        9.0346536567        1.1718570327
O             6.5174718172        8.9477430724        5.7287864185
