36

Mo            6.5352877197        1.7167957965        2.7373531700
S             8.1001094250        0.8475999519        4.3704624030
S             8.1281312511        0.8206318786        1.1644876627
Mo            8.1123507867        4.5144607431        2.6889863107
S             6.4937619901        3.6476675318        4.2029377403
S             6.5250231229        3.5587647483        1.1162591715
Mo            6.4744188132        7.1856884977        2.6690493985
S             8.0393128859        6.3007251282        4.3072535030
S             8.0985261872        6.3499776801        1.1004127423
Mo            8.1118650580        9.9347170420        2.7761935574
S             6.4819659659        8.9488643401        4.3261923571
S             6.5598540705        9.0377216973        1.1332070216
Mo            3.3986457032        1.7646883634        2.7539654479
S             4.9617667308        0.8170893396        4.3393608124
S             4.9506660840        0.8331273094        1.1505290023
Mo            4.9332739277        4.5621256749        2.6320261689
S             3.4439119579        3.6830048643        4.3070748079
S             3.3968379690        3.5571628468        1.0957772752
Mo            3.4226327210        7.1807225503        2.6466964692
S             4.9577541451        6.3361355934        1.0213156415
Mo            4.9549473538        9.9106822006        2.7261696536
S             3.4326546747        8.9371551876        4.3127997183
S             3.3617854938        9.0372868657        1.1188042496
Mo            0.2316708689        1.7420436129        2.7637957306
S             1.8267769487        0.8529137583        4.3637817913
S             1.8153836952        0.8415759680        1.1743708710
Mo            1.8377105299        4.4892004172        2.7037447421
S             0.2288879902        3.6141546287        4.3049946503
S             0.2428249383        3.5494315789        1.1320771752
Mo            0.2227423243        7.2186170911        2.7384758982
S             1.8691704651        6.3009619691        4.2945838765
S             1.7936786785        6.3274861893        1.1023790833
Mo            1.8200907325        9.9354908552        2.7673482170
S             0.2410736956        9.0237628484        4.3687449600
S             0.2343095016        9.0518641841        1.1764900981
O             6.4862981617        3.6936141446        5.7026461982
