36

Mo            6.5585572380        1.7117443291        2.7577551711
S             8.1247533684        0.7992171867        4.3703010916
S             8.1333776526        0.8108406863        1.1644772968
Mo            8.1115417711        4.4527354305        2.7088073046
S             6.5175250964        3.6185397757        4.3070422503
S             6.5444827720        3.5180186623        1.1123996617
Mo            6.5155782174        7.1384811821        2.6668925967
S             8.0785493184        6.2574362974        4.3042510472
S             8.1225470122        6.2698344611        1.0966538554
Mo            8.1078906285        9.9068378711        2.7506282450
S             6.5220808239        8.9032432912        4.3206573645
S             6.5746115794        8.9760742925        1.1136782009
Mo            3.4180557723        1.7119271316        2.7651635910
S             4.9917002803        0.7625773059        4.3462475905
S             4.9862741508        0.7938323902        1.1746293740
Mo            4.9885528612        4.4925618018        2.6623514584
S             3.4619294628        3.6229541920        4.3157239017
S             3.4271759712        3.5176571452        1.1229153552
Mo            3.4618716318        7.1364814379        2.6682579313
S             4.9908132481        6.2661122625        1.0475662584
Mo            4.9899988698        9.8501646530        2.7291989685
S             3.4592900426        8.9015703082        4.3223568488
S             3.4026261054        8.9753649505        1.1188185899
Mo            0.2600456062        1.6955357635        2.7681910382
S             1.8500871047        0.8045027571        4.3766136168
S             1.8457106682        0.8128564323        1.1671320527
Mo            1.8621686569        4.4530765723        2.7184675350
S             0.2520630581        3.5624049043        4.3145989311
S             0.2633919706        3.5154902620        1.1489538405
Mo            0.2597778072        7.1396841308        2.7211553655
S             1.8964074696        6.2590094524        4.3094090104
S             1.8525460984        6.2679015669        1.1008349113
Mo            1.8699769280        9.9100958561        2.7562902023
S             0.2582916359        8.9797964009        4.2588962736
S             0.2629538127        9.0065983675        1.1810091930
O             9.7059023209        8.9657202331        5.7579968954
