36

Mo            6.6007107374        1.7582198025        2.7464975043
S             8.1732586495        0.8711114535        4.3612444541
S             8.1710393333        0.8382171635        1.1607129633
Mo            8.1622788395        4.5098380857        2.7069131499
S             6.5608560708        3.6730803093        4.2955146731
S             6.5997237365        3.5736786544        1.0989782712
Mo            6.5504198931        7.1918588162        2.6724416020
S             8.1075553402        6.3085976434        4.3104415451
S             8.1737192630        6.3431107355        1.1178329173
Mo            8.1766488886        9.9484644831        2.7744289013
S             6.5566874466        8.9613088817        4.3280458252
S             6.6307638527        9.0407389011        1.1321071915
Mo            3.4842293596        1.7871355739        2.7419993289
S             5.0301900431        0.8331188848        4.3377083302
S             5.0330895485        0.8427764510        1.1539231682
Mo            5.0338586760        4.5503947846        2.6430620915
S             3.5154636695        3.6844009913        4.3079997935
S             3.4670401169        3.5871835912        1.0970536758
Mo            3.5180729442        7.1942646759        2.6739234868
S             5.0326832206        6.3304673179        1.0394723847
Mo            5.0308674753        9.9199958312        2.7282326747
S             3.5102560816        8.9574044797        4.3289730184
S             3.4466379902        9.0290797082        1.1207120244
Mo            0.2785833816        1.7766163385        2.7479256981
S             1.8898935798        0.8577008443        4.2703581284
S             1.8813789485        0.8468248988        1.1870982040
Mo            1.9059377275        4.5065088756        2.7152345583
S             0.3022598828        3.6216117659        4.3185021170
S             0.3052571854        3.5919364006        1.1340420646
Mo            0.2944902197        7.2275966056        2.7517684691
S             1.9472537320        6.3125999909        4.3095516519
S             1.8849487785        6.3444631031        1.1243876662
Mo            1.8881847486        9.9121439335        2.7618966251
S             0.3038629599        9.0366585113        4.3764285588
S             0.2886077270        9.0452001043        1.1741093728
O             1.8878902974        0.8809600408        5.7708177818
