36

Mo            6.5222802613        1.7441427663        2.7622106035
S             8.0941489972        0.8375817266        4.3738623939
S             8.1029450324        0.8257177295        1.1842860237
Mo            8.0873023211        4.4847310837        2.7151738798
S             6.4863711840        3.6529452435        4.3104151157
S             6.5212486365        3.5481999465        1.1159575835
Mo            6.4799441608        7.1672839361        2.6707444053
S             8.0473940809        6.2947612682        4.3048706336
S             8.1098441932        6.3159537394        1.1175905889
Mo            8.0978338043        9.9151927960        2.7779834360
S             6.4734159867        8.9306323541        4.3290752003
S             6.5644653066        9.0104530749        1.1283505154
Mo            3.3886493344        1.7448269599        2.7659932075
S             4.9580205987        0.8031316689        4.3550452575
S             4.9566381389        0.8427758844        1.1625209247
Mo            4.9566653523        4.5200629412        2.6578572616
S             3.4297900677        3.6548316810        4.3128786597
S             3.3988342254        3.5514236117        1.1138990151
Mo            3.4375772113        7.1406787447        2.6515584218
S             4.9720742374        6.2874863962        1.0347899057
Mo            4.9728343168        9.9127611354        2.7216004020
S             3.4102048910        8.9435302806        4.2401839890
S             3.3601659306        9.0245586358        1.1404068476
Mo            0.2279118495        1.7378350077        2.7707995157
S             1.8105418917        0.8429502177        4.3756698022
S             1.8088411781        0.8518230222        1.1720016881
Mo            1.8312369800        4.4901323700        2.7152867413
S             0.2302411766        3.6015550732        4.3198333557
S             0.2290013904        3.5500852520        1.1510659263
Mo            0.2382364787        7.2054318930        2.7457826281
S             1.8909989225        6.2969950613        4.3132078645
S             1.8023074347        6.3091370386        1.1018238483
Mo            1.7891762098        9.9458933238        2.7614335352
S             0.2340740225        9.0144286409        4.3688905135
S             0.2167554903        9.0349533705        1.1730709698
O             3.4358779398        8.9463180905        5.7386408765
