36

Mo            6.5521651305        1.6590388913        2.9003621227
S             8.1741623118        0.7345172870        4.4126548981
S             8.1059051112        0.8333829242        1.2232423223
Mo            8.1280203450        4.5633324366        2.7493448052
S             6.4450296571        4.3141739472        4.5668214414
S             6.5438128440        3.5149119129        1.2789958232
Mo            6.5487368930        7.1677336538        2.6327774099
S             8.1688909806        6.3871545869        4.3094431156
S             8.1639876514        6.3105611916        1.0805907362
Mo            8.1425150977        9.8981444521        2.7694264483
S             6.5107454935        8.8943422307        4.3161789640
S             6.5968152012        9.0198468489        1.1090229571
Mo            3.4314171678        1.7261499147        2.7819188519
S             4.9265331037        0.6831327198        4.3685463765
S             5.0265195971        0.8230976441        1.2113555811
Mo            4.9724457281        4.5882570884        2.6928327361
S             3.4447842406        3.6286470382        4.3092733870
S             3.4323199490        3.5303928082        1.1292440240
Mo            3.4716395118        7.1606537008        2.6308013265
S             5.0145467771        6.2964421362        1.0186997993
Mo            4.9817196332        9.8491254615        2.7227996518
S             3.4505150999        8.8926907771        4.3000087313
S             3.3914177509        9.0160600042        1.0961963631
Mo            0.2407702148        1.7218130593        2.8038301411
S             1.8524131665        0.8137020992        4.3712445161
S             1.8317568591        0.8429049020        1.1946792671
Mo            1.8471824573        4.4536801281        2.7050841630
S             0.2405151036        3.6054136144        4.3355375131
S             0.2183286588        3.5282496335        1.1707843507
Mo            0.2951880012        7.2106821601        2.6945688190
S             1.9194462920        6.2762298431        4.2670685790
S             1.8633627161        6.2780552204        1.0782486864
Mo            1.8500225776        9.9139326263        2.7498927344
S             0.2895544447        8.9931426302        4.3427279412
S             0.2639360527        9.0499634751        1.1435132489
O             6.4397318582        2.7300318073        4.8230297437
