36

Mo            6.5936391328        1.7158528146        2.7324069425
S             8.1611971697        0.8427290616        4.3562332081
S             8.1884006882        0.8323844101        1.1496281029
Mo            8.1707964518        4.5109518191        2.6890074159
S             6.5576811782        3.6365311388        4.2076410730
S             6.5764645704        3.5612402682        1.1166571093
Mo            6.5328121361        7.1851496394        2.6626533513
S             8.1001596799        6.3025526958        4.3012160890
S             8.1549273202        6.3445075156        1.0923197207
Mo            8.1663665654        9.9366834630        2.7543565423
S             6.5473073233        8.9477043907        4.3185182482
S             6.6041311885        9.0343386610        1.1224507370
Mo            3.4589286550        1.7672116974        2.7659342665
S             5.0281424551        0.8179173579        4.3461820558
S             5.0030129030        0.8302715431        1.1599915823
Mo            4.9929510686        4.5663930088        2.6421376464
S             3.5074043562        3.6911390292        4.3194678499
S             3.4540848423        3.5610817478        1.1106444377
Mo            3.4797219438        7.1844552243        2.6585930065
S             5.0072488584        6.3344200251        1.0263489984
Mo            5.0101109959        9.9088095262        2.7328980802
S             3.4809584390        8.9462900000        4.3220772465
S             3.4179452977        9.0360839283        1.1263613277
Mo            0.2928474615        1.7462074670        2.7579003711
S             1.8807728101        0.8540418736        4.3657230652
S             1.8813589295        0.8471683989        1.1753079555
Mo            1.8954153662        4.4927059965        2.7146099705
S             0.2858347230        3.6120188706        4.3078005767
S             0.3067870885        3.5561244622        1.1313903727
Mo            0.2792111037        7.2180182848        2.7289870776
S             1.9194475163        6.3083136416        4.3013918621
S             1.8602127021        6.3265465564        1.1087876095
Mo            1.8727822124        9.9382089538        2.7645937500
S             0.2850999903        9.0254069701        4.3527153090
S             0.2941346093        9.0493516371        1.1609845412
O             6.5793070571        3.6551009987        5.7068300774
