36

Mo            6.5497736567        1.8198360750        2.7298064465
S             8.1373398479        0.8927729341        4.2588060166
S             8.1505342817        0.8772899041        1.1731762619
Mo            8.1300494350        4.5372103420        2.7037862410
S             6.5223651887        3.7150331127        4.2965001066
S             6.5650462672        3.6236766490        1.0814068825
Mo            6.5166871916        7.2257613717        2.6738449675
S             8.0942169332        6.3432771153        4.3016494559
S             8.1490353095        6.3762576693        1.1201353863
Mo            8.1476006872        9.9482737096        2.7565016599
S             6.5273913701        8.9884563877        4.3282583022
S             6.5853154961        9.0582979165        1.1214500531
Mo            3.4336741641        1.7965227318        2.7419156148
S             5.0056931771        0.8747163198        4.3344976332
S             4.9932006892        0.8756071155        1.1488322567
Mo            5.0032857269        4.5836612072        2.6348301281
S             3.4786626877        3.7136530952        4.2880236513
S             3.4401304453        3.6067562685        1.0921918976
Mo            3.4836468867        7.2275721891        2.6746223715
S             4.9986324156        6.3669313810        1.0391381047
Mo            5.0041420480        9.9555331516        2.7295055528
S             3.4777321506        9.0008354230        4.3300086546
S             3.4080993072        9.0736626496        1.1327148805
Mo            0.2930148983        1.8072645847        2.7397348893
S             1.8607743176        0.9094053516        4.3565147257
S             1.8639434438        0.8741050825        1.1561177707
Mo            1.8726672452        4.5398031637        2.6982082406
S             0.2764775234        3.6533118625        4.3070346975
S             0.2719475374        3.6209268098        1.1207499161
Mo            0.2843079050        7.2608757055        2.7419769067
S             1.9222734739        6.3399784240        4.3039718165
S             1.8646285561        6.3762162238        1.1142444599
Mo            1.8592144598        9.9839906191        2.7705995143
S             0.2762950037        9.0659537932        4.3679245846
S             0.2900453577        9.0810765653        1.1653239906
O             8.1405108156        0.9150879499        5.7567435381
