36

Mo            6.5969475198        1.7549465469        2.7371328034
S             8.1345344577        0.8252492148        4.3587605865
S             8.1599927902        0.8171087975        1.1592022944
Mo            8.1298003748        4.4774531515        2.7059899782
S             6.5386690257        3.6442010355        4.3101350370
S             6.5642336648        3.5608967913        1.0976358049
Mo            6.5332898593        7.1656462382        2.6572261771
S             8.0928604435        6.2869034968        4.2924818444
S             8.1501432971        6.3019989268        1.0998309529
Mo            8.1437921632        9.9154480852        2.7531794334
S             6.5288675701        8.9287917519        4.3120745386
S             6.6089223673        9.0022807964        1.1022905531
Mo            3.4076842882        1.7577415150        2.7415425130
S             5.0068722224        0.7962780242        4.2386578768
S             4.9994395164        0.8273233232        1.1715205551
Mo            5.0034832773        4.5163732745        2.6592771821
S             3.4727093260        3.6483161662        4.3155515976
S             3.4404450188        3.5633723753        1.1009196619
Mo            3.4717379113        7.1649911152        2.6674536801
S             4.9985096983        6.2962960626        1.0476083920
Mo            5.0014329838        9.8532463694        2.7036949583
S             3.4783781076        8.9300122020        4.3208532568
S             3.3925836523        8.9980301877        1.1092826223
Mo            0.2738128908        1.7135096988        2.7649943882
S             1.8668491461        0.8274880473        4.3640054303
S             1.8472695265        0.8150883017        1.1629330769
Mo            1.8769838191        4.4780128119        2.7137794046
S             0.2722491270        3.5867362912        4.3158373625
S             0.2783374055        3.5368644161        1.1477490256
Mo            0.2724498177        7.1930149716        2.7267734225
S             1.9052013240        6.2883516631        4.3005459287
S             1.8564750800        6.3009025980        1.1092400944
Mo            1.8611768900        9.9145606342        2.7600104774
S             0.2708359235        9.0042167823        4.3497542215
S             0.2764570650        9.0261956804        1.1597400590
O             5.0126750166       11.6919990657        5.7374223579
