36

Mo            6.5201012745        1.7548377449        2.7399385617
S             8.1133088464        0.8275382496        4.2641984948
S             8.1222210177        0.8259862348        1.1773509586
Mo            8.1002357060        4.4708187821        2.7092393952
S             6.4945890734        3.6463481319        4.3086607968
S             6.5269519680        3.5591802475        1.0983900385
Mo            6.4893162664        7.1625845505        2.6580732882
S             8.0578906294        6.2819206264        4.2948476181
S             8.1206317859        6.3048964180        1.1111312153
Mo            8.1158070279        9.8843682104        2.7455222232
S             6.4980746550        8.9226959960        4.3126686765
S             6.5558311855        8.9981357566        1.1017489501
Mo            3.4073267279        1.7210505455        2.7546992671
S             4.9832398673        0.7901777064        4.3366927458
S             4.9683849538        0.8124198094        1.1520646719
Mo            4.9710257744        4.5209181282        2.6531658799
S             3.4443677794        3.6366136235        4.3066571580
S             3.4114296283        3.5353852018        1.1139796119
Mo            3.4540907219        7.1570418588        2.6623429915
S             4.9720531828        6.2901355768        1.0337458971
Mo            4.9748445643        9.8838989897        2.7154290846
S             3.4484529536        8.9257885681        4.3129800735
S             3.3753224291        9.0030029666        1.1187140651
Mo            0.2704301424        1.7458606000        2.7436344106
S             1.8300143945        0.8265327040        4.3593043554
S             1.8382879387        0.8112797782        1.1596899954
Mo            1.8438500849        4.4753399512        2.7123152479
S             0.2453535846        3.5893298478        4.3194393716
S             0.2501884226        3.5607864012        1.1311322223
Mo            0.2505480347        7.1950832980        2.7348734004
S             1.8916488172        6.2840786744        4.3023095545
S             1.8304439448        6.3019686162        1.1115297683
Mo            1.8271200122        9.9121276752        2.7605138591
S             0.2400944147        9.0018413858        4.3583756211
S             0.2577749510        9.0147037879        1.1536514673
O             8.1263520287        0.8462697671        5.7617366395
