36

Mo            6.5708907341        1.7794332106        2.7961159777
S             8.1455661208        0.8757398928        4.3959074259
S             8.1478558225        0.8642777259        1.2085587255
Mo            8.1477970121        4.5152342478        2.7764132248
S             6.5430082328        3.6576753647        4.3658046109
S             6.5708837029        3.6002044069        1.1808307792
Mo            6.5242809824        7.2052907279        2.7353237724
S             8.1021567893        6.3392000490        4.3703981395
S             8.1634321367        6.3508888746        1.1848440585
Mo            8.1491253975        9.9624690973        2.8054100942
S             6.5491527772        9.0069591098        4.3791552313
S             6.5910194467        9.0607838117        1.1862184585
Mo            3.4382362468        1.7812792188        2.7932963070
S             5.0051234040        0.8596354344        4.3886372635
S             5.0050977871        0.8635557951        1.1950205216
Mo            5.0010688871        4.5750973476        2.7286287305
S             3.4626688239        3.6562889673        4.3649958099
S             3.4360119880        3.5995370909        1.1780667812
Mo            3.4763591616        7.2074329792        2.7380168563
S             4.9972405509        6.3398308946        1.0455783019
Mo            5.0046463391        9.9540157623        2.7836756299
S             3.4585908974        9.0100222067        4.3785876453
S             3.4166392297        9.0643746241        1.1880537995
Mo            0.2742956607        1.7747949757        2.7960083284
S             1.8630934086        0.8801763299        4.3946248372
S             1.8579759761        0.8663604163        1.2064866908
Mo            1.8570377907        4.5147915041        2.7757042987
S             0.2740543362        3.6192944807        4.3753374757
S             0.2723436216        3.5993908167        1.1890189123
Mo            0.2728041741        7.2520153919        2.8019308895
S             1.8965172846        6.3386206934        4.3738931273
S             1.8394479736        6.3532972848        1.1858043340
Mo            1.8595411234        9.9645687422        2.8063554443
S             0.2768026704        9.0693411498        4.4069080861
S             0.2752401870        9.0752882645        1.2128984485
O             5.0000958898        6.3297128539        3.8338138017
