36

Mo            6.5853740174        1.7782006463        2.7514424583
S             8.1505281907        0.8704891083        4.3677386740
S             8.1624349908        0.8783851873        1.1612080203
Mo            8.1380617076        4.5182791427        2.7344545978
S             6.5374249520        3.6748069619        4.3196235515
S             6.5752557431        3.5937517102        1.1207605648
Mo            6.5442556239        7.2066780817        2.6870761424
S             8.1095943677        6.3278414469        4.3290470324
S             8.1502356249        6.3312879455        1.1238712907
Mo            8.1383673946        9.9761883748        2.7534242015
S             6.5508527209        8.9867415990        4.3233550492
S             6.6052388487        9.0384565264        1.1224288552
Mo            3.4449955924        1.7756839893        2.7455523729
S             5.0153959357        0.8342211824        4.3326564242
S             5.0181927621        0.8597014993        1.1553931115
Mo            5.0149345736        4.5549014855        2.6695256401
S             3.4876830359        3.6723394756        4.3121148524
S             3.4585246310        3.5887852460        1.1135001338
Mo            3.4930287224        7.2078430037        2.6776596924
S             5.0215566553        6.3345935449        1.0643995532
Mo            5.0168947337        9.9222183078        2.7214902956
S             3.4876057544        8.9816525215        4.3195324488
S             3.4310360324        9.0378728943        1.1115274008
Mo            0.2871405492        1.7633878839        2.7679230432
S             1.8824633043        0.8693026712        4.3641102617
S             1.8618109798        0.8784727693        1.1547633134
Mo            1.8954641883        4.5185276279        2.7220013827
S             0.2934025158        3.6246797268        4.3263265872
S             0.2838029498        3.5907473346        1.1627273792
Mo            0.2914261720        7.2018172394        2.7397467533
S             1.9352837236        6.3232781134        4.3198859796
S             1.8855619453        6.3363294952        1.1125781494
Mo            1.8957219801        9.9737805633        2.7473436274
S             0.2904812376        9.0521878417        4.2665603134
S             0.2861670744        9.0575440886        1.1882005641
O             0.2968988916        9.0545489518        5.7648118182
