36

Mo            6.5839422169        1.7433847801        2.7619453571
S             8.1535849998        0.8363043539        4.3768534423
S             8.1673996477        0.8267655011        1.1892204166
Mo            8.1440810628        4.4861333096        2.7144367759
S             6.5395318271        3.6567591904        4.3041967180
S             6.5828891805        3.5449057776        1.1083893301
Mo            6.5420012002        7.1721706818        2.6644341470
S             8.1087984649        6.2970076416        4.3014283471
S             8.1705254876        6.3154020626        1.1143508534
Mo            8.1530066078        9.9143060936        2.7783143069
S             6.5303679796        8.9301072494        4.3302472877
S             6.6198201917        9.0154355101        1.1217641983
Mo            3.4505790960        1.7437541502        2.7674501744
S             5.0206978500        0.8003011815        4.3549783825
S             5.0183399624        0.8419220783        1.1623007886
Mo            5.0163899395        4.5225782499        2.6459206487
S             3.4983158109        3.6566571478        4.3108671015
S             3.4510042919        3.5487693276        1.1145211667
Mo            3.4951923241        7.1380703629        2.6511796983
S             5.0323333647        6.2962666223        1.0262178688
Mo            5.0301534109        9.9115948865        2.7226906089
S             3.4604489759        8.9414694944        4.2349889931
S             3.4136992248        9.0257963370        1.1434618626
Mo            0.2891308859        1.7401378198        2.7793713014
S             1.8749275268        0.8404639932        4.3802804960
S             1.8658390528        0.8557623942        1.1760359178
Mo            1.8904859951        4.4898556649        2.7243037961
S             0.2841568151        3.6067312293        4.3277285377
S             0.2906340036        3.5521395060        1.1599509639
Mo            0.3000193689        7.2057610353        2.7457932883
S             1.9501097250        6.2965579271        4.3204749706
S             1.8656286727        6.3042928964        1.1064578085
Mo            1.8425354362        9.9502464997        2.7604816521
S             0.2919693319        9.0178078982        4.3666973903
S             0.2726277316        9.0358221842        1.1725509073
O             3.4741837934        8.9197609276        5.7344760322
