36

Mo            6.5842905717        1.7460463412        2.7692825649
S             8.1532101984        0.8353539087        4.3792250352
S             8.1562801860        0.8501180764        1.1728151841
Mo            8.1398573780        4.4854204908        2.7222020170
S             6.5383353238        3.6575225000        4.3185208393
S             6.5746197382        3.5489248370        1.1222065915
Mo            6.5490834116        7.1720062589        2.6760898069
S             8.1154218993        6.2927652742        4.3138072562
S             8.1535725915        6.2997701462        1.1064749340
Mo            8.1348491288        9.9446423246        2.7576349334
S             6.5540452707        8.9412624871        4.3280984247
S             6.6031409337        9.0102548410        1.1224668986
Mo            3.4454918257        1.7422381277        2.7609389096
S             5.0130812118        0.7973615110        4.3519311730
S             5.0191763160        0.8237945306        1.1769379064
Mo            5.0158264633        4.5240566524        2.6628642333
S             3.4843175017        3.6519299279        4.3076028730
S             3.4577117770        3.5465270685        1.1150554910
Mo            3.4957060939        7.1719568965        2.6645774787
S             5.0296244453        6.2988384896        1.0507531998
Mo            5.0185066799        9.8844356986        2.7350360514
S             3.4881936897        8.9338354825        4.3242709728
S             3.4333063996        9.0145538863        1.1170617758
Mo            0.2874805131        1.7283190364        2.7746646628
S             1.8804657961        0.8347611008        4.3772076680
S             1.8683629212        0.8439652230        1.1688713923
Mo            1.8923743348        4.4870538844        2.7090477257
S             0.2926158190        3.5977413183        4.3190140192
S             0.2836394629        3.5462049357        1.1553875463
Mo            0.2922533675        7.1743851096        2.7236347817
S             1.9348625889        6.2898814799        4.3027276119
S             1.8860242283        6.3074997183        1.0943165906
Mo            1.8971555278        9.9409691073        2.7583656934
S             0.2868422342        9.0115478869        4.2660209501
S             0.2860521375        9.0441621565        1.1857638153
O             0.2773201564        9.0010952512        5.7638845290
