36

Mo            6.5111985483        1.7739211314        2.8217603934
S             8.1083412861        0.8556916681        4.3917233719
S             8.0740488661        0.8697247724        1.1984804593
Mo            8.1579294156        4.5078572253        2.7408392102
S             6.7669245642        3.6137464666        4.5878428874
S             6.5050477252        3.6124225009        1.2226262925
Mo            6.5185450692        7.1846930022        2.6677993410
S             8.1103663534        6.3353216710        4.3032040178
S             8.1546484935        6.3254185395        1.1151871431
Mo            8.1135906550        9.9498838635        2.7784271622
S             6.4989416687        8.9403656043        4.3307195217
S             6.5831378043        9.0356074041        1.1344690111
Mo            3.3907569326        1.7198587836        2.7582918997
S             4.9439421382        0.8014850796        4.3708232017
S             4.9827143500        0.8518115743        1.1831323463
Mo            4.9919031449        4.6272687060        2.7685391002
S             3.3744009610        3.5939114759        4.2791500030
S             3.4475885855        3.5733689728        1.1496831827
Mo            3.4626613090        7.1986562262        2.6562446973
S             4.9922813355        6.2937778751        1.0596636567
Mo            4.9814274005        9.9076407795        2.7315654697
S             3.4503990394        8.9468100861        4.3118243732
S             3.3888150499        9.0420426586        1.1113486318
Mo            0.2366369638        1.7511903385        2.7634935927
S             1.8139594346        0.8307835322        4.3633735877
S             1.8096646988        0.8405011154        1.1621457670
Mo            1.8364785871        4.4877801514        2.7081775606
S             0.2921343188        3.6044335221        4.3263196643
S             0.2468260822        3.5454671463        1.1289657658
Mo            0.2692164501        7.2349847511        2.7238279531
S             1.9014303846        6.3098652512        4.2910308480
S             1.8445489799        6.3267840566        1.0993903322
Mo            1.8272262604        9.9395442995        2.7537623134
S             0.2565312567        9.0324132616        4.3548129962
S             0.2344909926        9.0738608506        1.1630094353
O             5.6473474619        4.7993409557        4.7790923864
