36

Mo            6.6224993576        1.7529167585        2.7373371170
S             8.1634557054        0.8316155071        4.3599441531
S             8.1874888464        0.8138402135        1.1589489829
Mo            8.1589484884        4.4760475558        2.7063391733
S             6.5645224098        3.6451301237        4.3080573650
S             6.5934641346        3.5577648161        1.0962021313
Mo            6.5642474414        7.1654270954        2.6583512355
S             8.1222696054        6.2860376363        4.2942091714
S             8.1832335086        6.3011974987        1.1040278907
Mo            8.1735541990        9.9164311709        2.7602664608
S             6.5585231896        8.9252060243        4.3157860788
S             6.6422182313        9.0026592169        1.1062459489
Mo            3.4390206978        1.7548985884        2.7385043068
S             5.0294705970        0.7959966516        4.2396987984
S             5.0307611688        0.8209353397        1.1710802422
Mo            5.0326813325        4.5160868424        2.6539132024
S             3.5022007405        3.6466873131        4.3091432521
S             3.4704946440        3.5619487335        1.0942924432
Mo            3.5039787742        7.1632798422        2.6696342220
S             5.0318099373        6.2993505147        1.0453934205
Mo            5.0315329426        9.8530395126        2.7075711518
S             3.5077046471        8.9290066411        4.3230554722
S             3.4216367058        8.9958224408        1.1142886275
Mo            0.3001659182        1.7158623745        2.7611113993
S             1.8927935086        0.8342020212        4.3586222260
S             1.8714095769        0.8147511713        1.1616602906
Mo            1.9067185936        4.4778760163        2.7092474197
S             0.3034923343        3.5858840694        4.3121589420
S             0.3058497042        3.5378185347        1.1446933448
Mo            0.3032625517        7.1934984402        2.7325149602
S             1.9375700312        6.2857673355        4.3028664223
S             1.8859045476        6.3055824722        1.1110293420
Mo            1.8885977057        9.9155277676        2.7629105913
S             0.3012601875        9.0051394167        4.3560006781
S             0.3025483747        9.0274915977        1.1670317012
O             5.0415633392        0.7702191559        5.7386094108
