36

Mo            6.5961743800        1.6848821399        2.7264293487
S             8.1626301896        0.8130708755        4.3590973943
S             8.1940721408        0.7937703965        1.1532131750
Mo            8.1698832827        4.4779454635        2.6957156634
S             6.5526223704        3.6030131693        4.2023797146
S             6.5853499876        3.5328964316        1.1129185848
Mo            6.5282206439        7.1499873445        2.6649648564
S             8.0894393102        6.2664239229        4.3108439750
S             8.1536049524        6.3107244538        1.1019938196
Mo            8.1678110322        9.9028196801        2.7628087843
S             6.5428793705        8.9174290305        4.3160727506
S             6.6142603569        9.0000824613        1.1245309585
Mo            3.4628468543        1.7332098976        2.7560635901
S             5.0290531467        0.7825735823        4.3378905446
S             5.0094487379        0.8004705352        1.1459329101
Mo            4.9943979732        4.5318030087        2.6346731845
S             3.5114651153        3.6541495887        4.3136045885
S             3.4486114264        3.5303174872        1.1013655639
Mo            3.4764083065        7.1499426423        2.6572374691
S             5.0032112809        6.3026669405        1.0230029565
Mo            5.0123354746        9.8773270085        2.7223363963
S             3.4870110815        8.9140336753        4.3167285804
S             3.4146393316        9.0008688667        1.1215697249
Mo            0.2966395997        1.7108519577        2.7600426446
S             1.8892695106        0.8224101389        4.3626266200
S             1.8824652762        0.8109791702        1.1726751762
Mo            1.8971173449        4.4593539147        2.7173648046
S             0.2888081459        3.5754293294        4.3131626333
S             0.3062911595        3.5241642342        1.1379184104
Mo            0.2765596778        7.1830663086        2.7421273680
S             1.9216870232        6.2727731792        4.3086936177
S             1.8512976977        6.2932977419        1.1132550193
Mo            1.8760180725        9.9054036202        2.7654890934
S             0.2904521095        8.9972067037        4.3612162130
S             0.2924152868        9.0126210073        1.1729206775
O             6.5522071395        3.6116249467        5.7018807641
