36

Mo            6.5932439650        1.7512989330        2.7732148924
S             8.1752381252        0.8454152790        4.3749562132
S             8.1711582667        0.8374937387        1.1907658581
Mo            8.1633674214        4.4649881594        2.6924373946
S             6.5711158549        3.6699136690        4.3170211483
S             6.5721933258        3.5416740230        1.1100757137
Mo            6.5258743244        7.1983501901        2.6460120371
S             8.1268189111        6.3147605190        4.2047605780
S             8.1847930686        6.3224959387        1.1214502412
Mo            8.1714541223        9.9271153755        2.7818917562
S             6.5523134903        8.9269510941        4.3407017754
S             6.6280327721        9.0464228244        1.1238974913
Mo            3.4663212346        1.7472335950        2.7595383652
S             5.0258328858        0.8082316404        4.3563900457
S             5.0342742980        0.8352626389        1.1730809714
Mo            5.0351472949        4.5404083395        2.6626348708
S             3.5069068228        3.6542915042        4.3065004000
S             3.4802642481        3.5545200218        1.1132964903
Mo            3.5128474264        7.1807922268        2.6612351013
S             5.0228837529        6.3000735891        1.0269725174
Mo            5.0335173582        9.9055643674        2.7351692227
S             3.5050946729        8.9494005430        4.3245108072
S             3.4427062790        9.0351433129        1.1262495294
Mo            0.3070730577        1.7438379169        2.7658139518
S             1.8915396007        0.8418184500        4.3630975625
S             1.8864221446        0.8357388011        1.1743765323
Mo            1.9103123534        4.4907135041        2.7083067054
S             0.3038170794        3.6101662098        4.3144540048
S             0.3201899547        3.5459715370        1.1315736532
Mo            0.3336066763        7.2247578374        2.7316805936
S             1.9707812679        6.3028268377        4.2988686056
S             1.9017428566        6.3154601040        1.1028135323
Mo            1.8861694800        9.9305965052        2.7658165065
S             0.3095488174        9.0216226941        4.3713834099
S             0.2946423848        9.0613137283        1.1716743827
O             8.1118614171        6.2699318730        5.7036999582
