36

Mo            6.5952386823        1.7523935290        2.7745816704
S             8.1761325490        0.8447566085        4.3786254534
S             8.1761267257        0.8394704566        1.1932961148
Mo            8.1630388740        4.4648513138        2.6951134804
S             6.5700428555        3.6696496989        4.3177389520
S             6.5739176205        3.5423762923        1.1130897260
Mo            6.5271925778        7.1962238512        2.6473684964
S             8.1238093900        6.3142824478        4.2072042438
S             8.1856251467        6.3221354731        1.1225017179
Mo            8.1719502516        9.9273391054        2.7840772063
S             6.5509367935        8.9270636143        4.3405694381
S             6.6284348684        9.0450067290        1.1245933847
Mo            3.4683088239        1.7477983870        2.7649862095
S             5.0296322211        0.8082614733        4.3586775770
S             5.0353413813        0.8371766012        1.1758271720
Mo            5.0334699909        4.5399943059        2.6642263423
S             3.5075778639        3.6554191365        4.3106796249
S             3.4761317627        3.5545854419        1.1171441420
Mo            3.5128312545        7.1810016767        2.6656284897
S             5.0195556079        6.3007508377        1.0295003198
Mo            5.0334831085        9.9050314792        2.7359155087
S             3.5066541340        8.9476596383        4.3289717508
S             3.4394777474        9.0344311394        1.1316610445
Mo            0.3097276127        1.7437562770        2.7732424181
S             1.8955941533        0.8427296381        4.3707365193
S             1.8891913469        0.8357077469        1.1815893850
Mo            1.9092814497        4.4902182534        2.7140434126
S             0.3009133509        3.6118808770        4.3194103404
S             0.3205923953        3.5454339748        1.1384965609
Mo            0.3330029921        7.2230931792        2.7354232782
S             1.9666139748        6.3051896036        4.3003463037
S             1.9008762564        6.3137443783        1.1088645417
Mo            1.8858952142        9.9304992933        2.7733924065
S             0.3068997686        9.0197328628        4.3755938132
S             0.2971299875        9.0598599375        1.1760241996
O            -1.3482817213        6.2730522627        5.7056202924
