36

Mo            6.5634751813        1.7859780648        2.7749498782
S             8.1436742878        0.8720081574        4.3782343205
S             8.1491695105        0.8773939173        1.1953722818
Mo            8.1333989999        4.4926559163        2.7010660331
S             6.5378584651        3.7017536537        4.3235088673
S             6.5395964963        3.5784578676        1.1189712752
Mo            6.4993610276        7.2300519448        2.6338976635
S             8.0957569920        6.3524833550        4.1958792179
S             8.1559871708        6.3413440607        1.1149787443
Mo            8.1419381477        9.9593138071        2.7749008676
S             6.5192271311        8.9583520209        4.3256051828
S             6.6048882713        9.0772717376        1.1080467068
Mo            3.4375054174        1.7802904874        2.7716480702
S             5.0012869149        0.8318716001        4.3537434518
S             5.0020153253        0.8784048261        1.1725042238
Mo            5.0020013318        4.5779996068        2.6715302934
S             3.4785632202        3.6907103457        4.3227278654
S             3.4464674451        3.5880850165        1.1270443313
Mo            3.4812767238        7.2189601218        2.6510841822
S             4.9892775491        6.3304155869        1.0236187240
Mo            5.0053529928        9.9371812137        2.7183358125
S             3.4797425484        8.9848271266        4.3126181486
S             3.4086232903        9.0709383725        1.1126062423
Mo            0.2823654387        1.7749428121        2.7812780403
S             1.8661363933        0.8647797454        4.3737560161
S             1.8595147152        0.8745021975        1.1833463485
Mo            1.8817505372        4.5256526013        2.7221646326
S             0.2742166901        3.6441209102        4.3299560472
S             0.2953423601        3.5749227065        1.1495532841
Mo            0.3049249152        7.2553398140        2.7233188125
S             1.9426290283        6.3495079605        4.2953823342
S             1.8709364571        6.3398407346        1.0995408289
Mo            1.8561586432        9.9633533708        2.7616638673
S             0.2769589972        9.0525192336        4.3638999391
S             0.2652827284        9.0919858317        1.1640712436
O             8.0856945566        6.3386630184        5.6955190408
