36

Mo            6.5566234749        1.7732185125        2.7508442578
S             8.1343432085        0.8758957106        4.3603928926
S             8.1347634273        0.8820174566        1.1508595007
Mo            8.1165499457        4.5219962500        2.7316299799
S             6.5091228700        3.6777911183        4.3116710088
S             6.5525410956        3.5924088386        1.1161647316
Mo            6.5074837058        7.1670526843        2.6707228462
S             8.0585222608        6.3298772630        4.3354725068
S             8.1449421501        6.3374918805        1.1258476064
Mo            8.1591639528        9.9785328889        2.7462899758
S             6.5406817779        8.9918984276        4.2366629941
S             6.5893535151        9.0388575746        1.1393380025
Mo            3.4232039044        1.7740428161        2.7397234945
S             4.9842237326        0.8343845024        4.3359877253
S             4.9916505881        0.8709128388        1.1387790096
Mo            4.9873558014        4.5507015509        2.6568992793
S             3.4623529432        3.6717200665        4.3053999835
S             3.4201120638        3.5873368219        1.1100631247
Mo            3.4646768443        7.2041543974        2.6787255043
S             4.9742430963        6.3258955794        1.0454544226
Mo            4.9750242830        9.9429936598        2.7064483545
S             3.4710273899        8.9797904582        4.3203207153
S             3.3819888613        9.0333426814        1.1153800383
Mo            0.2579674382        1.7702423810        2.7542931626
S             1.8512060242        0.8723198464        4.3507996641
S             1.8375665476        0.8595028932        1.1605967209
Mo            1.8609500384        4.5171054575        2.7229010774
S             0.2639598904        3.6230170999        4.3238448648
S             0.2586115592        3.5951247054        1.1549102816
Mo            0.2542493623        7.2380345763        2.7596727553
S             1.9037895585        6.3260249394        4.3204098498
S             1.8369948612        6.3506446298        1.1320987720
Mo            1.8500748369        9.9504661686        2.7593585776
S             0.2615603255        9.0614468062        4.3587922962
S             0.2741896890        9.0552763197        1.1647471108
O             6.5257826546        9.0340043865        5.7348197316
