36

Mo            6.5347196033        1.7855297047        2.7680206285
S             8.1088890791        0.8722887202        4.3743918159
S             8.1215364697        0.8746237163        1.1913745133
Mo            8.1053913167        4.4937397593        2.6970389788
S             6.5096490371        3.6986823214        4.3176026597
S             6.5131168477        3.5794256459        1.1108244639
Mo            6.4716884658        7.2305275949        2.6338418073
S             8.0671300245        6.3538956175        4.1974316153
S             8.1301540908        6.3483247841        1.1163915393
Mo            8.1121507840        9.9587568388        2.7744083030
S             6.4925234387        8.9553214037        4.3294036662
S             6.5717406287        9.0790575969        1.1117197301
Mo            3.4097394200        1.7823721259        2.7718184978
S             4.9753939893        0.8352371638        4.3534943412
S             4.9703611255        0.8731529872        1.1730937276
Mo            4.9750547286        4.5763906914        2.6669910048
S             3.4500400611        3.6934532083        4.3198498962
S             3.4190085096        3.5868770722        1.1236181063
Mo            3.4556434682        7.2164256685        2.6571410892
S             4.9621955502        6.3303698666        1.0226766555
Mo            4.9754378429        9.9363762853        2.7252334086
S             3.4477082357        8.9858050809        4.3185625390
S             3.3805046938        9.0682534594        1.1192864549
Mo            0.2519863449        1.7748638987        2.7804927980
S             1.8377846426        0.8703153502        4.3755805528
S             1.8318446248        0.8782024848        1.1849006623
Mo            1.8519777567        4.5240501123        2.7195800689
S             0.2442151521        3.6437544419        4.3281020520
S             0.2667177083        3.5722593866        1.1450957753
Mo            0.2770934162        7.2578628434        2.7266340856
S             1.9099834185        6.3472818426        4.2959394877
S             1.8441746990        6.3428631558        1.1049462271
Mo            1.8280791457        9.9667134567        2.7647625766
S             0.2467634136        9.0548421027        4.3644135023
S             0.2404698058        9.0938886081        1.1659577683
O             8.0367372505        6.3250947466        5.6957018202
