36

Mo            6.5770775688        1.8013948041        2.7730303558
S             8.1522014001        0.8912121379        4.3795192313
S             8.1583854269        0.8767928030        1.1895177000
Mo            8.1351097018        4.5242186415        2.7053935175
S             6.5308671213        3.7278930303        4.3193855466
S             6.5727072267        3.5857187017        1.1052383099
Mo            6.5546275748        7.2164081819        2.6504459675
S             8.1135823926        6.3399241657        4.2904164884
S             8.1770183948        6.3604616802        1.1007644461
Mo            8.1586752242        9.9703217956        2.7809185023
S             6.5471563476        8.9654560256        4.3269621280
S             6.6184692803        9.0762284446        1.1308186182
Mo            3.4420950290        1.7461952382        2.7489373599
S             5.0145046409        0.8497679386        4.3599730726
S             5.0313285425        0.8652975396        1.1705041323
Mo            5.0426101821        4.5994644106        2.6423194521
S             3.4755286332        3.6774343467        4.2083199139
S             3.4581042264        3.5885424003        1.1261450108
Mo            3.5045084500        7.2180701372        2.6663257496
S             5.0252720147        6.3680229735        1.0209282828
Mo            5.0256624988        9.9429450426        2.7418048676
S             3.4943091776        8.9756447671        4.3303593707
S             3.4246479204        9.0743318888        1.1380102719
Mo            0.2868394223        1.7790658994        2.7722268434
S             1.8726267643        0.8799955948        4.3788025435
S             1.8494178313        0.8589943556        1.1712434744
Mo            1.8615715002        4.5458408964        2.6892274161
S             0.2846649626        3.6540726826        4.3081036005
S             0.2719208464        3.5817794777        1.1327314424
Mo            0.2980626570        7.2529185986        2.7304293946
S             1.9354841030        6.3382071112        4.3004017686
S             1.8793902547        6.3793571932        1.0973813451
Mo            1.8665780590        9.9691041390        2.7792527296
S             0.2850045096        9.0495711380        4.3700530307
S             0.2846534081        9.0926616827        1.1779917629
O             3.4646881627        3.7149194348        5.7064562241
