36

Mo            6.5484874825        1.7554823565        2.7385844445
S             8.1437485578        0.8269043631        4.2592072426
S             8.1495595367        0.8269482625        1.1734974301
Mo            8.1297997800        4.4700232443        2.7088972206
S             6.5253773504        3.6485317431        4.3112666329
S             6.5532739046        3.5632199374        1.0969515832
Mo            6.5184970312        7.1615362985        2.6658361449
S             8.0944014510        6.2812391728        4.2955898349
S             8.1453471949        6.3036719101        1.1126143362
Mo            8.1463428502        9.8853983556        2.7457038223
S             6.5295670053        8.9228618922        4.3182595236
S             6.5884019699        8.9939057671        1.1084407347
Mo            3.4353098399        1.7222298503        2.7541424445
S             5.0081075968        0.7899712072        4.3361586283
S             4.9946683237        0.8104156722        1.1515056874
Mo            5.0009918773        4.5228675236        2.6572919079
S             3.4731379353        3.6383035972        4.3094866319
S             3.4467852459        3.5376948349        1.1137092626
Mo            3.4804890466        7.1599801906        2.6632566025
S             5.0006437015        6.2930454872        1.0395167146
Mo            5.0040856978        9.8824646559        2.7178307387
S             3.4751018287        8.9267441003        4.3147363822
S             3.4047212501        9.0036300239        1.1172327734
Mo            0.2984293480        1.7447116936        2.7440951094
S             1.8580945941        0.8262567144        4.3586801462
S             1.8669622880        0.8135600604        1.1589085124
Mo            1.8752845305        4.4747170965        2.7096805325
S             0.2774558931        3.5890997855        4.3176324648
S             0.2794911064        3.5584301529        1.1301952616
Mo            0.2796998069        7.1949840680        2.7304973318
S             1.9168004234        6.2850660589        4.2985693042
S             1.8604443768        6.3015129858        1.1093829618
Mo            1.8566887592        9.9134730092        2.7579270953
S             0.2717805727        9.0017371931        4.3544206382
S             0.2842644064        9.0171094252        1.1516896160
O             8.1561133372        0.8332177205        5.7593518776
