36

Mo            6.5967624806        1.7840911915        2.7752325015
S             8.1687622953        0.8739666847        4.3793534613
S             8.1752673092        0.8765461872        1.1871661734
Mo            8.1508714003        4.5246588978        2.7235972406
S             6.5511567280        3.6958190472        4.3227468396
S             6.5856940344        3.5873326301        1.1258555413
Mo            6.5495098758        7.2152867707        2.6622433833
S             8.0948533020        6.3452643220        4.3030787671
S             8.1635723284        6.3433692959        1.1122267148
Mo            8.1795030914        9.9673266287        2.7710829761
S             6.5585778738        8.9840524044        4.3223348605
S             6.6278211118        9.0668364981        1.1254446639
Mo            3.4712593355        1.7863821912        2.7663876432
S             5.0292650125        0.8381607439        4.3569977417
S             5.0397262187        0.8745214069        1.1750081274
Mo            5.0273871119        4.5748030735        2.6667686123
S             3.4941798122        3.6967775050        4.3165617235
S             3.4882623016        3.5805354808        1.1093236933
Mo            3.5324613163        7.2300779349        2.6421801278
S             5.0398183305        6.3321889361        1.0271216728
Mo            5.0326813414        9.9383163288        2.7287254809
S             3.5142714555        8.9590724306        4.3319028194
S             3.4361907331        9.0767379750        1.1182301727
Mo            0.2969151506        1.7771022608        2.7805508285
S             1.8977409288        0.8773617732        4.3735260550
S             1.8832537820        0.8750969309        1.1897676895
Mo            1.8971760373        4.4922437163        2.6989171816
S             0.3023912709        3.6432317729        4.3296388275
S             0.2793774082        3.5760477970        1.1460115127
Mo            0.2701340279        7.2574943077        2.7358227079
S             1.9381455851        6.3477836198        4.2028680259
S             1.8713411092        6.3480059814        1.1251941053
Mo            1.8931864014        9.9614049419        2.7774189084
S             0.3030202712        9.0573682899        4.3721376419
S             0.3090484515        9.0921936193        1.1713010916
O             1.9750151209        6.3094201678        5.7020360229
